Title Card Required
 OpenBabel06272217483D

 14 13  0  0  0  0  0  0  0  0999 V2000
   -0.8535    0.9910    0.3497 C   0  0  0  0  0  0  0  0  0  0  0  0
   -0.2522    1.8251   -0.0922 H   0  0  0  0  0  0  0  0  0  0  0  0
   -0.8978    0.9100    1.3689 H   0  0  0  0  0  0  0  0  0  0  0  0
   -0.1988   -0.4132   -0.0172 C   0  0  0  0  0  0  0  0  0  0  0  0
   -0.3913   -1.3818    0.6008 H   0  0  0  0  0  0  0  0  0  0  0  0
   -0.3652   -0.5488   -1.1383 H   0  0  0  0  0  0  0  0  0  0  0  0
    1.7179    0.0159   -0.0184 Br  0  0  0  0  0  0  0  0  0  0  0  0
   -2.3142    1.0074   -0.2241 C   0  0  0  0  0  0  0  0  0  0  0  0
   -2.2313    0.9793   -1.2903 H   0  0  0  0  0  0  0  0  0  0  0  0
   -2.8217    1.9911   -0.0175 H   0  0  0  0  0  0  0  0  0  0  0  0
   -3.1804   -0.2166    0.1831 C   0  0  0  0  0  0  0  0  0  0  0  0
   -4.0655    0.0378   -0.5006 H   0  0  0  0  0  0  0  0  0  0  0  0
   -3.5379    0.1001    1.1792 H   0  0  0  0  0  0  0  0  0  0  0  0
   -2.6466   -1.3519   -0.1351 O   0  0  0  0  0  1  0  0  0  0  0  0
  1  3  1  0  0  0  0
  2  1  1  0  0  0  0
  4  1  1  0  0  0  0
  4  5  1  0  0  0  0
  6  4  1  0  0  0  0
  7  4  1  0  0  0  0
  8 10  1  0  0  0  0
  8 11  1  0  0  0  0
  8  1  1  0  0  0  0
  9  8  1  0  0  0  0
 11 13  1  0  0  0  0
 12 11  1  0  0  0  0
 14 11  1  0  0  0  0
M  END
$$$$
Title Card Required
 OpenBabel06272217483D

 14 13  0  0  0  0  0  0  0  0999 V2000
   -0.8276    0.9872    0.3409 C   0  0  0  0  0  0  0  0  0  0  0  0
   -0.2157    1.7660   -0.0903 H   0  0  0  0  0  0  0  0  0  0  0  0
   -0.9862    0.9432    1.3760 H   0  0  0  0  0  0  0  0  0  0  0  0
   -0.2094   -0.4077   -0.0068 C   0  0  0  0  0  0  0  0  0  0  0  0
   -0.3837   -1.3217    0.5712 H   0  0  0  0  0  0  0  0  0  0  0  0
   -0.3375   -0.4869   -1.1163 H   0  0  0  0  0  0  0  0  0  0  0  0
    1.7156    0.0161   -0.0191 Br  0  0  0  0  0  0  0  0  0  0  0  0
   -2.3097    0.9908   -0.2081 C   0  0  0  0  0  0  0  0  0  0  0  0
   -2.2653    1.0204   -1.2483 H   0  0  0  0  0  0  0  0  0  0  0  0
   -2.8677    1.9627   -0.0621 H   0  0  0  0  0  0  0  0  0  0  0  0
   -3.1667   -0.2127    0.1655 C   0  0  0  0  0  0  0  0  0  0  0  0
   -4.0600   -0.0413   -0.4475 H   0  0  0  0  0  0  0  0  0  0  0  0
   -3.5686    0.0990    1.2009 H   0  0  0  0  0  0  0  0  0  0  0  0
   -2.6529   -1.3462   -0.1360 O   0  0  0  0  0  1  0  0  0  0  0  0
  1  3  1  0  0  0  0
  2  1  1  0  0  0  0
  4  1  1  0  0  0  0
  4  5  1  0  0  0  0
  6  4  1  0  0  0  0
  7  4  1  0  0  0  0
  8 10  1  0  0  0  0
  8 11  1  0  0  0  0
  8  1  1  0  0  0  0
  9  8  1  0  0  0  0
 11 13  1  0  0  0  0
 12 11  1  0  0  0  0
 14 11  1  0  0  0  0
M  END
$$$$
Title Card Required
 OpenBabel06272217483D

 14 13  0  0  0  0  0  0  0  0999 V2000
   -0.8049    0.9788    0.3296 C   0  0  0  0  0  0  0  0  0  0  0  0
   -0.1734    1.7126   -0.0836 H   0  0  0  0  0  0  0  0  0  0  0  0
   -1.0701    0.9944    1.4235 H   0  0  0  0  0  0  0  0  0  0  0  0
   -0.2207   -0.3986    0.0007 C   0  0  0  0  0  0  0  0  0  0  0  0
   -0.3820   -1.2523    0.5394 H   0  0  0  0  0  0  0  0  0  0  0  0
   -0.3144   -0.4383   -1.0750 H   0  0  0  0  0  0  0  0  0  0  0  0
    1.7136    0.0162   -0.0198 Br  0  0  0  0  0  0  0  0  0  0  0  0
   -2.3038    0.9761   -0.1896 C   0  0  0  0  0  0  0  0  0  0  0  0
   -2.2923    1.0561   -1.2507 H   0  0  0  0  0  0  0  0  0  0  0  0
   -2.9070    1.9261   -0.0950 H   0  0  0  0  0  0  0  0  0  0  0  0
   -3.1534   -0.2064    0.1465 C   0  0  0  0  0  0  0  0  0  0  0  0
   -4.0817   -0.1111   -0.3988 H   0  0  0  0  0  0  0  0  0  0  0  0
   -3.5966    0.0838    1.2345 H   0  0  0  0  0  0  0  0  0  0  0  0
   -2.6578   -1.3427   -0.1361 O   0  0  0  0  0  1  0  0  0  0  0  0
  1  3  1  0  0  0  0
  2  1  1  0  0  0  0
  4  1  1  0  0  0  0
  4  5  1  0  0  0  0
  6  4  1  0  0  0  0
  7  4  1  0  0  0  0
  8 10  1  0  0  0  0
  8 11  1  0  0  0  0
  8  1  1  0  0  0  0
  9  8  1  0  0  0  0
 11 13  1  0  0  0  0
 12 11  1  0  0  0  0
 14 11  1  0  0  0  0
M  END
$$$$
Title Card Required
 OpenBabel06272217483D

 14 13  0  0  0  0  0  0  0  0999 V2000
   -0.7879    0.9631    0.3208 C   0  0  0  0  0  0  0  0  0  0  0  0
   -0.1106    1.6834   -0.0798 H   0  0  0  0  0  0  0  0  0  0  0  0
   -1.1359    1.0710    1.4713 H   0  0  0  0  0  0  0  0  0  0  0  0
   -0.2322   -0.3793    0.0047 C   0  0  0  0  0  0  0  0  0  0  0  0
   -0.4003   -1.2225    0.5371 H   0  0  0  0  0  0  0  0  0  0  0  0
   -0.3019   -0.4099   -1.0350 H   0  0  0  0  0  0  0  0  0  0  0  0
    1.7119    0.0161   -0.0206 Br  0  0  0  0  0  0  0  0  0  0  0  0
   -2.2954    0.9638   -0.1698 C   0  0  0  0  0  0  0  0  0  0  0  0
   -2.3092    1.0819   -1.2983 H   0  0  0  0  0  0  0  0  0  0  0  0
   -2.9367    1.8792   -0.1040 H   0  0  0  0  0  0  0  0  0  0  0  0
   -3.1404   -0.1977    0.1268 C   0  0  0  0  0  0  0  0  0  0  0  0
   -4.1488   -0.1630   -0.3611 H   0  0  0  0  0  0  0  0  0  0  0  0
   -3.6122    0.0489    1.2710 H   0  0  0  0  0  0  0  0  0  0  0  0
   -2.6605   -1.3423   -0.1357 O   0  0  0  0  0  1  0  0  0  0  0  0
  1  3  1  0  0  0  0
  2  1  1  0  0  0  0
  4  1  1  0  0  0  0
  4  5  1  0  0  0  0
  6  4  1  0  0  0  0
  7  4  1  0  0  0  0
  8 10  1  0  0  0  0
  8 11  1  0  0  0  0
  8  1  1  0  0  0  0
  9  8  1  0  0  0  0
 11 13  1  0  0  0  0
 12 11  1  0  0  0  0
 14 11  1  0  0  0  0
M  END
$$$$
Title Card Required
 OpenBabel06272217483D

 14 13  0  0  0  0  0  0  0  0999 V2000
   -0.7843    0.9431    0.3223 C   0  0  0  0  0  0  0  0  0  0  0  0
   -0.0443    1.6891   -0.0777 H   0  0  0  0  0  0  0  0  0  0  0  0
   -1.1406    1.1607    1.4618 H   0  0  0  0  0  0  0  0  0  0  0  0
   -0.2409   -0.3479    0.0059 C   0  0  0  0  0  0  0  0  0  0  0  0
   -0.4500   -1.2685    0.5848 H   0  0  0  0  0  0  0  0  0  0  0  0
   -0.3142   -0.4202   -1.0473 H   0  0  0  0  0  0  0  0  0  0  0  0
    1.7107    0.0158   -0.0213 Br  0  0  0  0  0  0  0  0  0  0  0  0
   -2.2842    0.9585   -0.1580 C   0  0  0  0  0  0  0  0  0  0  0  0
   -2.3046    1.0818   -1.3471 H   0  0  0  0  0  0  0  0  0  0  0  0
   -2.9455    1.8337   -0.0654 H   0  0  0  0  0  0  0  0  0  0  0  0
   -3.1338   -0.1898    0.1102 C   0  0  0  0  0  0  0  0  0  0  0  0
   -4.2426   -0.1713   -0.3354 H   0  0  0  0  0  0  0  0  0  0  0  0
   -3.5952   -0.0049    1.2922 H   0  0  0  0  0  0  0  0  0  0  0  0
   -2.6591   -1.3469   -0.1347 O   0  0  0  0  0  1  0  0  0  0  0  0
  1  3  1  0  0  0  0
  2  1  1  0  0  0  0
  4  1  1  0  0  0  0
  4  5  1  0  0  0  0
  6  4  1  0  0  0  0
  7  4  1  0  0  0  0
  8 10  1  0  0  0  0
  8 11  1  0  0  0  0
  8  1  1  0  0  0  0
  9  8  1  0  0  0  0
 11 13  1  0  0  0  0
 12 11  1  0  0  0  0
 14 11  1  0  0  0  0
M  END
$$$$
Title Card Required
 OpenBabel06272217483D

 14 13  0  0  0  0  0  0  0  0999 V2000
   -0.7956    0.9311    0.3348 C   0  0  0  0  0  0  0  0  0  0  0  0
   -0.0337    1.6998   -0.0635 H   0  0  0  0  0  0  0  0  0  0  0  0
   -1.0648    1.2283    1.3881 H   0  0  0  0  0  0  0  0  0  0  0  0
   -0.2447   -0.3214    0.0072 C   0  0  0  0  0  0  0  0  0  0  0  0
   -0.5050   -1.2966    0.6193 H   0  0  0  0  0  0  0  0  0  0  0  0
   -0.3539   -0.4701   -1.0986 H   0  0  0  0  0  0  0  0  0  0  0  0
    1.7104    0.0152   -0.0217 Br  0  0  0  0  0  0  0  0  0  0  0  0
   -2.2720    0.9626   -0.1629 C   0  0  0  0  0  0  0  0  0  0  0  0
   -2.2750    1.0520   -1.3418 H   0  0  0  0  0  0  0  0  0  0  0  0
   -2.9293    1.8164    0.0220 H   0  0  0  0  0  0  0  0  0  0  0  0
   -3.1395   -0.1890    0.1012 C   0  0  0  0  0  0  0  0  0  0  0  0
   -4.2982   -0.1236   -0.3156 H   0  0  0  0  0  0  0  0  0  0  0  0
   -3.5387   -0.0593    1.2809 H   0  0  0  0  0  0  0  0  0  0  0  0
   -2.6537   -1.3553   -0.1340 O   0  0  0  0  0  1  0  0  0  0  0  0
  1  3  1  0  0  0  0
  2  1  1  0  0  0  0
  4  1  1  0  0  0  0
  4  5  1  0  0  0  0
  6  4  1  0  0  0  0
  7  4  1  0  0  0  0
  8 10  1  0  0  0  0
  8 11  1  0  0  0  0
  8  1  1  0  0  0  0
  9  8  1  0  0  0  0
 11 13  1  0  0  0  0
 12 11  1  0  0  0  0
 14 11  1  0  0  0  0
M  END
$$$$
Title Card Required
 OpenBabel06272217483D

 14 13  0  0  0  0  0  0  0  0999 V2000
   -0.8132    0.9314    0.3490 C   0  0  0  0  0  0  0  0  0  0  0  0
   -0.0798    1.6990   -0.0440 H   0  0  0  0  0  0  0  0  0  0  0  0
   -0.9615    1.2623    1.3266 H   0  0  0  0  0  0  0  0  0  0  0  0
   -0.2445   -0.3106    0.0067 C   0  0  0  0  0  0  0  0  0  0  0  0
   -0.5385   -1.2610    0.6099 H   0  0  0  0  0  0  0  0  0  0  0  0
   -0.3996   -0.5254   -1.1158 H   0  0  0  0  0  0  0  0  0  0  0  0
    1.7108    0.0145   -0.0220 Br  0  0  0  0  0  0  0  0  0  0  0  0
   -2.2624    0.9714   -0.1779 C   0  0  0  0  0  0  0  0  0  0  0  0
   -2.2370    1.0163   -1.2986 H   0  0  0  0  0  0  0  0  0  0  0  0
   -2.8991    1.8278    0.1180 H   0  0  0  0  0  0  0  0  0  0  0  0
   -3.1523   -0.1947    0.1001 C   0  0  0  0  0  0  0  0  0  0  0  0
   -4.2977   -0.0524   -0.3022 H   0  0  0  0  0  0  0  0  0  0  0  0
   -3.4701   -0.0964    1.2489 H   0  0  0  0  0  0  0  0  0  0  0  0
   -2.6475   -1.3640   -0.1342 O   0  0  0  0  0  1  0  0  0  0  0  0
  1  3  1  0  0  0  0
  2  1  1  0  0  0  0
  4  1  1  0  0  0  0
  4  5  1  0  0  0  0
  6  4  1  0  0  0  0
  7  4  1  0  0  0  0
  8 11  1  0  0  0  0
  8 10  1  0  0  0  0
  8  1  1  0  0  0  0
  9  8  1  0  0  0  0
 11 13  1  0  0  0  0
 12 11  1  0  0  0  0
 14 11  1  0  0  0  0
M  END
$$$$
Title Card Required
 OpenBabel06272217483D

 14 13  0  0  0  0  0  0  0  0999 V2000
   -0.8327    0.9377    0.3596 C   0  0  0  0  0  0  0  0  0  0  0  0
   -0.1503    1.6972   -0.0315 H   0  0  0  0  0  0  0  0  0  0  0  0
   -0.8606    1.2845    1.3243 H   0  0  0  0  0  0  0  0  0  0  0  0
   -0.2426   -0.3095    0.0035 C   0  0  0  0  0  0  0  0  0  0  0  0
   -0.5557   -1.1968    0.5811 H   0  0  0  0  0  0  0  0  0  0  0  0
   -0.4428   -0.5732   -1.0932 H   0  0  0  0  0  0  0  0  0  0  0  0
    1.7115    0.0138   -0.0221 Br  0  0  0  0  0  0  0  0  0  0  0  0
   -2.2554    0.9821   -0.1953 C   0  0  0  0  0  0  0  0  0  0  0  0
   -2.1984    0.9871   -1.2553 H   0  0  0  0  0  0  0  0  0  0  0  0
   -2.8582    1.8493    0.2056 H   0  0  0  0  0  0  0  0  0  0  0  0
   -3.1670   -0.2032    0.1035 C   0  0  0  0  0  0  0  0  0  0  0  0
   -4.2657    0.0230   -0.2950 H   0  0  0  0  0  0  0  0  0  0  0  0
   -3.4038   -0.1191    1.2140 H   0  0  0  0  0  0  0  0  0  0  0  0
   -2.6413   -1.3726   -0.1355 O   0  0  0  0  0  1  0  0  0  0  0  0
  1  3  1  0  0  0  0
  2  1  1  0  0  0  0
  4  1  1  0  0  0  0
  4  5  1  0  0  0  0
  6  4  1  0  0  0  0
  7  4  1  0  0  0  0
  8 11  1  0  0  0  0
  8 10  1  0  0  0  0
  8  1  1  0  0  0  0
  9  8  1  0  0  0  0
 11 13  1  0  0  0  0
 12 11  1  0  0  0  0
 14 11  1  0  0  0  0
M  END
$$$$
Title Card Required
 OpenBabel06272217483D

 14 13  0  0  0  0  0  0  0  0999 V2000
   -0.8538    0.9465    0.3669 C   0  0  0  0  0  0  0  0  0  0  0  0
   -0.2266    1.7058   -0.0344 H   0  0  0  0  0  0  0  0  0  0  0  0
   -0.7650    1.3014    1.3792 H   0  0  0  0  0  0  0  0  0  0  0  0
   -0.2395   -0.3130   -0.0024 C   0  0  0  0  0  0  0  0  0  0  0  0
   -0.5649   -1.1324    0.5535 H   0  0  0  0  0  0  0  0  0  0  0  0
   -0.4827   -0.6132   -1.0453 H   0  0  0  0  0  0  0  0  0  0  0  0
    1.7124    0.0129   -0.0221 Br  0  0  0  0  0  0  0  0  0  0  0  0
   -2.2510    0.9941   -0.2106 C   0  0  0  0  0  0  0  0  0  0  0  0
   -2.1600    0.9679   -1.2410 H   0  0  0  0  0  0  0  0  0  0  0  0
   -2.8061    1.8705    0.2782 H   0  0  0  0  0  0  0  0  0  0  0  0
   -3.1816   -0.2129    0.1094 C   0  0  0  0  0  0  0  0  0  0  0  0
   -4.2173    0.0968   -0.2937 H   0  0  0  0  0  0  0  0  0  0  0  0
   -3.3444   -0.1302    1.1895 H   0  0  0  0  0  0  0  0  0  0  0  0
   -2.6352   -1.3814   -0.1378 O   0  0  0  0  0  1  0  0  0  0  0  0
  1  3  1  0  0  0  0
  2  1  1  0  0  0  0
  4  1  1  0  0  0  0
  4  5  1  0  0  0  0
  6  4  1  0  0  0  0
  7  4  1  0  0  0  0
  8 11  1  0  0  0  0
  8 10  1  0  0  0  0
  8  1  1  0  0  0  0
  9  8  1  0  0  0  0
 11 13  1  0  0  0  0
 12 11  1  0  0  0  0
 14 11  1  0  0  0  0
M  END
$$$$
Title Card Required
 OpenBabel06272217483D

 14 13  0  0  0  0  0  0  0  0999 V2000
   -0.8772    0.9571    0.3738 C   0  0  0  0  0  0  0  0  0  0  0  0
   -0.2998    1.7351   -0.0595 H   0  0  0  0  0  0  0  0  0  0  0  0
   -0.6735    1.3051    1.4611 H   0  0  0  0  0  0  0  0  0  0  0  0
   -0.2348   -0.3172   -0.0112 C   0  0  0  0  0  0  0  0  0  0  0  0
   -0.5751   -1.0953    0.5489 H   0  0  0  0  0  0  0  0  0  0  0  0
   -0.5219   -0.6487   -0.9880 H   0  0  0  0  0  0  0  0  0  0  0  0
    1.7136    0.0120   -0.0221 Br  0  0  0  0  0  0  0  0  0  0  0  0
   -2.2493    1.0077   -0.2216 C   0  0  0  0  0  0  0  0  0  0  0  0
   -2.1201    0.9606   -1.2714 H   0  0  0  0  0  0  0  0  0  0  0  0
   -2.7416    1.8873    0.3304 H   0  0  0  0  0  0  0  0  0  0  0  0
   -3.1950   -0.2233    0.1167 C   0  0  0  0  0  0  0  0  0  0  0  0
   -4.1632    0.1677   -0.3003 H   0  0  0  0  0  0  0  0  0  0  0  0
   -3.2942   -0.1300    1.1889 H   0  0  0  0  0  0  0  0  0  0  0  0
   -2.6292   -1.3910   -0.1416 O   0  0  0  0  0  1  0  0  0  0  0  0
  1  3  1  0  0  0  0
  2  1  1  0  0  0  0
  4  1  1  0  0  0  0
  4  5  1  0  0  0  0
  6  4  1  0  0  0  0
  7  4  1  0  0  0  0
  8 11  1  0  0  0  0
  8 10  1  0  0  0  0
  8  1  1  0  0  0  0
  9  8  1  0  0  0  0
 11 13  1  0  0  0  0
 12 11  1  0  0  0  0
 14 11  1  0  0  0  0
M  END
$$$$
Title Card Required
 OpenBabel06272217483D

 14 13  0  0  0  0  0  0  0  0999 V2000
   -0.9012    0.9696    0.3833 C   0  0  0  0  0  0  0  0  0  0  0  0
   -0.3657    1.7879   -0.1075 H   0  0  0  0  0  0  0  0  0  0  0  0
   -0.5955    1.2849    1.5313 H   0  0  0  0  0  0  0  0  0  0  0  0
   -0.2279   -0.3191   -0.0221 C   0  0  0  0  0  0  0  0  0  0  0  0
   -0.5908   -1.1049    0.5858 H   0  0  0  0  0  0  0  0  0  0  0  0
   -0.5641   -0.6848   -0.9462 H   0  0  0  0  0  0  0  0  0  0  0  0
    1.7149    0.0108   -0.0221 Br  0  0  0  0  0  0  0  0  0  0  0  0
   -2.2508    1.0228   -0.2279 C   0  0  0  0  0  0  0  0  0  0  0  0
   -2.0809    0.9689   -1.3352 H   0  0  0  0  0  0  0  0  0  0  0  0
   -2.6692    1.9000    0.3534 H   0  0  0  0  0  0  0  0  0  0  0  0
   -3.2052   -0.2341    0.1251 C   0  0  0  0  0  0  0  0  0  0  0  0
   -4.1168    0.2308   -0.3175 H   0  0  0  0  0  0  0  0  0  0  0  0
   -3.2574   -0.1169    1.2215 H   0  0  0  0  0  0  0  0  0  0  0  0
   -2.6236   -1.4017   -0.1471 O   0  0  0  0  0  1  0  0  0  0  0  0
  1  3  1  0  0  0  0
  2  1  1  0  0  0  0
  4  7  1  0  0  0  0
  4  1  1  0  0  0  0
  4  5  1  0  0  0  0
  6  4  1  0  0  0  0
  8 11  1  0  0  0  0
  8 10  1  0  0  0  0
  8  1  1  0  0  0  0
  9  8  1  0  0  0  0
 11 13  1  0  0  0  0
 12 11  1  0  0  0  0
 14 11  1  0  0  0  0
M  END
$$$$
Title Card Required
 OpenBabel06272217483D

 14 13  0  0  0  0  0  0  0  0999 V2000
   -0.9228    0.9850    0.3966 C   0  0  0  0  0  0  0  0  0  0  0  0
   -0.4298    1.8521   -0.1671 H   0  0  0  0  0  0  0  0  0  0  0  0
   -0.5467    1.2337    1.5561 H   0  0  0  0  0  0  0  0  0  0  0  0
   -0.2196   -0.3187   -0.0321 C   0  0  0  0  0  0  0  0  0  0  0  0
   -0.5999   -1.1441    0.6573 H   0  0  0  0  0  0  0  0  0  0  0  0
   -0.6142   -0.7283   -0.9439 H   0  0  0  0  0  0  0  0  0  0  0  0
    1.7165    0.0093   -0.0220 Br  0  0  0  0  0  0  0  0  0  0  0  0
   -2.2559    1.0386   -0.2311 C   0  0  0  0  0  0  0  0  0  0  0  0
   -2.0492    0.9996   -1.3948 H   0  0  0  0  0  0  0  0  0  0  0  0
   -2.5994    1.9168    0.3386 H   0  0  0  0  0  0  0  0  0  0  0  0
   -3.2100   -0.2448    0.1354 C   0  0  0  0  0  0  0  0  0  0  0  0
   -4.0906    0.2773   -0.3462 H   0  0  0  0  0  0  0  0  0  0  0  0
   -3.2388   -0.0900    1.2795 H   0  0  0  0  0  0  0  0  0  0  0  0
   -2.6189   -1.4132   -0.1549 O   0  0  0  0  0  1  0  0  0  0  0  0
  1  3  1  0  0  0  0
  2  1  1  0  0  0  0
  4  7  1  0  0  0  0
  4  1  1  0  0  0  0
  4  5  1  0  0  0  0
  6  4  1  0  0  0  0
  8 11  1  0  0  0  0
  8 10  1  0  0  0  0
  8  1  1  0  0  0  0
  9  8  1  0  0  0  0
 11 13  1  0  0  0  0
 12 11  1  0  0  0  0
 14 11  1  0  0  0  0
M  END
$$$$
Title Card Required
 OpenBabel06272217483D

 14 13  0  0  0  0  0  0  0  0999 V2000
   -0.9356    1.0049    0.4123 C   0  0  0  0  0  0  0  0  0  0  0  0
   -0.4982    1.8992   -0.2099 H   0  0  0  0  0  0  0  0  0  0  0  0
   -0.5548    1.1499    1.5049 H   0  0  0  0  0  0  0  0  0  0  0  0
   -0.2130   -0.3193   -0.0376 C   0  0  0  0  0  0  0  0  0  0  0  0
   -0.5730   -1.1619    0.7257 H   0  0  0  0  0  0  0  0  0  0  0  0
   -0.6639   -0.7738   -0.9751 H   0  0  0  0  0  0  0  0  0  0  0  0
    1.7186    0.0073   -0.0220 Br  0  0  0  0  0  0  0  0  0  0  0  0
   -2.2652    1.0530   -0.2332 C   0  0  0  0  0  0  0  0  0  0  0  0
   -2.0383    1.0617   -1.3988 H   0  0  0  0  0  0  0  0  0  0  0  0
   -2.5584    1.9616    0.2776 H   0  0  0  0  0  0  0  0  0  0  0  0
   -3.2063   -0.2542    0.1498 C   0  0  0  0  0  0  0  0  0  0  0  0
   -4.0925    0.2824   -0.3791 H   0  0  0  0  0  0  0  0  0  0  0  0
   -3.2481   -0.0524    1.3315 H   0  0  0  0  0  0  0  0  0  0  0  0
   -2.6166   -1.4249   -0.1655 O   0  0  0  0  0  1  0  0  0  0  0  0
  1  3  1  0  0  0  0
  2  1  1  0  0  0  0
  4  7  1  0  0  0  0
  4  1  1  0  0  0  0
  4  5  1  0  0  0  0
  6  4  1  0  0  0  0
  8 11  1  0  0  0  0
  8 10  1  0  0  0  0
  8  1  1  0  0  0  0
  9  8  1  0  0  0  0
 11 13  1  0  0  0  0
 12 11  1  0  0  0  0
 14 11  1  0  0  0  0
M  END
$$$$
Title Card Required
 OpenBabel06272217483D

 14 13  0  0  0  0  0  0  0  0999 V2000
   -0.9348    1.0232    0.4214 C   0  0  0  0  0  0  0  0  0  0  0  0
   -0.5464    1.9017   -0.2037 H   0  0  0  0  0  0  0  0  0  0  0  0
   -0.6197    1.0732    1.4206 H   0  0  0  0  0  0  0  0  0  0  0  0
   -0.2130   -0.3232   -0.0382 C   0  0  0  0  0  0  0  0  0  0  0  0
   -0.5058   -1.1257    0.7443 H   0  0  0  0  0  0  0  0  0  0  0  0
   -0.6802   -0.7916   -0.9879 H   0  0  0  0  0  0  0  0  0  0  0  0
    1.7208    0.0053   -0.0220 Br  0  0  0  0  0  0  0  0  0  0  0  0
   -2.2761    1.0609   -0.2340 C   0  0  0  0  0  0  0  0  0  0  0  0
   -2.0554    1.1333   -1.3362 H   0  0  0  0  0  0  0  0  0  0  0  0
   -2.5743    2.0345    0.1936 H   0  0  0  0  0  0  0  0  0  0  0  0
   -3.1954   -0.2585    0.1642 C   0  0  0  0  0  0  0  0  0  0  0  0
   -4.1129    0.2284   -0.3927 H   0  0  0  0  0  0  0  0  0  0  0  0
   -3.2828   -0.0239    1.3357 H   0  0  0  0  0  0  0  0  0  0  0  0
   -2.6182   -1.4325   -0.1755 O   0  0  0  0  0  1  0  0  0  0  0  0
  1  3  1  0  0  0  0
  2  1  1  0  0  0  0
  4  7  1  0  0  0  0
  4  1  1  0  0  0  0
  4  5  1  0  0  0  0
  6  4  1  0  0  0  0
  8 11  1  0  0  0  0
  8 10  1  0  0  0  0
  8  1  1  0  0  0  0
  9  8  1  0  0  0  0
 11 13  1  0  0  0  0
 12 11  1  0  0  0  0
 14 11  1  0  0  0  0
M  END
$$$$
Title Card Required
 OpenBabel06272217483D

 14 13  0  0  0  0  0  0  0  0999 V2000
   -0.9280    1.0365    0.4189 C   0  0  0  0  0  0  0  0  0  0  0  0
   -0.5625    1.8826   -0.1644 H   0  0  0  0  0  0  0  0  0  0  0  0
   -0.6957    1.0237    1.3971 H   0  0  0  0  0  0  0  0  0  0  0  0
   -0.2179   -0.3279   -0.0370 C   0  0  0  0  0  0  0  0  0  0  0  0
   -0.4244   -1.0668    0.7320 H   0  0  0  0  0  0  0  0  0  0  0  0
   -0.6651   -0.7829   -0.9709 H   0  0  0  0  0  0  0  0  0  0  0  0
    1.7227    0.0034   -0.0220 Br  0  0  0  0  0  0  0  0  0  0  0  0
   -2.2873    1.0651   -0.2311 C   0  0  0  0  0  0  0  0  0  0  0  0
   -2.0846    1.1948   -1.2647 H   0  0  0  0  0  0  0  0  0  0  0  0
   -2.6250    2.1016    0.1054 H   0  0  0  0  0  0  0  0  0  0  0  0
   -3.1820   -0.2586    0.1756 C   0  0  0  0  0  0  0  0  0  0  0  0
   -4.1353    0.1383   -0.3843 H   0  0  0  0  0  0  0  0  0  0  0  0
   -3.3272   -0.0111    1.3047 H   0  0  0  0  0  0  0  0  0  0  0  0
   -2.6221   -1.4359   -0.1837 O   0  0  0  0  0  1  0  0  0  0  0  0
  1  3  1  0  0  0  0
  2  1  1  0  0  0  0
  4  7  1  0  0  0  0
  4  1  1  0  0  0  0
  4  5  1  0  0  0  0
  6  4  1  0  0  0  0
  8 10  1  0  0  0  0
  8 11  1  0  0  0  0
  8  1  1  0  0  0  0
  9  8  1  0  0  0  0
 11 13  1  0  0  0  0
 12 11  1  0  0  0  0
 14 11  1  0  0  0  0
M  END
$$$$
Title Card Required
 OpenBabel06272217483D

 14 13  0  0  0  0  0  0  0  0999 V2000
   -0.9202    1.0443    0.4064 C   0  0  0  0  0  0  0  0  0  0  0  0
   -0.5439    1.8706   -0.1148 H   0  0  0  0  0  0  0  0  0  0  0  0
   -0.7676    0.9960    1.4545 H   0  0  0  0  0  0  0  0  0  0  0  0
   -0.2249   -0.3301   -0.0360 C   0  0  0  0  0  0  0  0  0  0  0  0
   -0.3459   -1.0184    0.7224 H   0  0  0  0  0  0  0  0  0  0  0  0
   -0.6328   -0.7617   -0.9428 H   0  0  0  0  0  0  0  0  0  0  0  0
    1.7247    0.0017   -0.0222 Br  0  0  0  0  0  0  0  0  0  0  0  0
   -2.2996    1.0684   -0.2225 C   0  0  0  0  0  0  0  0  0  0  0  0
   -2.1129    1.2439   -1.2303 H   0  0  0  0  0  0  0  0  0  0  0  0
   -2.6900    2.1432    0.0196 H   0  0  0  0  0  0  0  0  0  0  0  0
   -3.1682   -0.2565    0.1835 C   0  0  0  0  0  0  0  0  0  0  0  0
   -4.1550    0.0313   -0.3606 H   0  0  0  0  0  0  0  0  0  0  0  0
   -3.3734   -0.0108    1.2618 H   0  0  0  0  0  0  0  0  0  0  0  0
   -2.6271   -1.4364   -0.1902 O   0  0  0  0  0  1  0  0  0  0  0  0
  1  3  1  0  0  0  0
  2  1  1  0  0  0  0
  4  7  1  0  0  0  0
  4  1  1  0  0  0  0
  4  5  1  0  0  0  0
  6  4  1  0  0  0  0
  8 10  1  0  0  0  0
  8 11  1  0  0  0  0
  8  1  1  0  0  0  0
  9  8  1  0  0  0  0
 11 13  1  0  0  0  0
 12 11  1  0  0  0  0
 14 11  1  0  0  0  0
M  END
$$$$
Title Card Required
 OpenBabel06272217483D

 14 13  0  0  0  0  0  0  0  0999 V2000
   -0.9128    1.0462    0.3905 C   0  0  0  0  0  0  0  0  0  0  0  0
   -0.4878    1.8856   -0.0689 H   0  0  0  0  0  0  0  0  0  0  0  0
   -0.8430    0.9852    1.5403 H   0  0  0  0  0  0  0  0  0  0  0  0
   -0.2323   -0.3274   -0.0356 C   0  0  0  0  0  0  0  0  0  0  0  0
   -0.2773   -1.0028    0.7411 H   0  0  0  0  0  0  0  0  0  0  0  0
   -0.5961   -0.7412   -0.9254 H   0  0  0  0  0  0  0  0  0  0  0  0
    1.7267   -0.0000   -0.0224 Br  0  0  0  0  0  0  0  0  0  0  0  0
   -2.3134    1.0722   -0.2087 C   0  0  0  0  0  0  0  0  0  0  0  0
   -2.1366    1.2801   -1.2457 H   0  0  0  0  0  0  0  0  0  0  0  0
   -2.7602    2.1528   -0.0578 H   0  0  0  0  0  0  0  0  0  0  0  0
   -3.1546   -0.2531    0.1871 C   0  0  0  0  0  0  0  0  0  0  0  0
   -4.1717   -0.0815   -0.3272 H   0  0  0  0  0  0  0  0  0  0  0  0
   -3.4189   -0.0198    1.2266 H   0  0  0  0  0  0  0  0  0  0  0  0
   -2.6324   -1.4346   -0.1953 O   0  0  0  0  0  1  0  0  0  0  0  0
  1  3  1  0  0  0  0
  2  1  1  0  0  0  0
  4  7  1  0  0  0  0
  4  1  1  0  0  0  0
  4  5  1  0  0  0  0
  6  4  1  0  0  0  0
  8 10  1  0  0  0  0
  8 11  1  0  0  0  0
  8  1  1  0  0  0  0
  9  8  1  0  0  0  0
 11 13  1  0  0  0  0
 12 11  1  0  0  0  0
 14 11  1  0  0  0  0
M  END
$$$$
Title Card Required
 OpenBabel06272217483D

 14 13  0  0  0  0  0  0  0  0999 V2000
   -0.9066    1.0429    0.3762 C   0  0  0  0  0  0  0  0  0  0  0  0
   -0.3994    1.9260   -0.0258 H   0  0  0  0  0  0  0  0  0  0  0  0
   -0.9239    0.9896    1.6001 H   0  0  0  0  0  0  0  0  0  0  0  0
   -0.2393   -0.3189   -0.0338 C   0  0  0  0  0  0  0  0  0  0  0  0
   -0.2206   -1.0191    0.7871 H   0  0  0  0  0  0  0  0  0  0  0  0
   -0.5646   -0.7321   -0.9375 H   0  0  0  0  0  0  0  0  0  0  0  0
    1.7289   -0.0018   -0.0227 Br  0  0  0  0  0  0  0  0  0  0  0  0
   -2.3288    1.0777   -0.1925 C   0  0  0  0  0  0  0  0  0  0  0  0
   -2.1586    1.2972   -1.2909 H   0  0  0  0  0  0  0  0  0  0  0  0
   -2.8302    2.1297   -0.1190 H   0  0  0  0  0  0  0  0  0  0  0  0
   -3.1419   -0.2495    0.1860 C   0  0  0  0  0  0  0  0  0  0  0  0
   -4.1861   -0.1894   -0.2892 H   0  0  0  0  0  0  0  0  0  0  0  0
   -3.4617   -0.0349    1.2150 H   0  0  0  0  0  0  0  0  0  0  0  0
   -2.6375   -1.4310   -0.1991 O   0  0  0  0  0  1  0  0  0  0  0  0
  1  3  1  0  0  0  0
  2  1  1  0  0  0  0
  4  7  1  0  0  0  0
  4  1  1  0  0  0  0
  4  5  1  0  0  0  0
  6  4  1  0  0  0  0
  8 10  1  0  0  0  0
  8 11  1  0  0  0  0
  8  1  1  0  0  0  0
  9  8  1  0  0  0  0
 11 13  1  0  0  0  0
 12 11  1  0  0  0  0
 14 11  1  0  0  0  0
M  END
$$$$
Title Card Required
 OpenBabel06272217483D

 14 13  0  0  0  0  0  0  0  0999 V2000
   -0.9014    1.0366    0.3650 C   0  0  0  0  0  0  0  0  0  0  0  0
   -0.2940    1.9676    0.0271 H   0  0  0  0  0  0  0  0  0  0  0  0
   -1.0068    1.0079    1.6058 H   0  0  0  0  0  0  0  0  0  0  0  0
   -0.2458   -0.3063   -0.0281 C   0  0  0  0  0  0  0  0  0  0  0  0
   -0.1780   -1.0459    0.8343 H   0  0  0  0  0  0  0  0  0  0  0  0
   -0.5395   -0.7366   -0.9803 H   0  0  0  0  0  0  0  0  0  0  0  0
    1.7315   -0.0036   -0.0232 Br  0  0  0  0  0  0  0  0  0  0  0  0
   -2.3457    1.0855   -0.1776 C   0  0  0  0  0  0  0  0  0  0  0  0
   -2.1836    1.2863   -1.3359 H   0  0  0  0  0  0  0  0  0  0  0  0
   -2.8995    2.0752   -0.1568 H   0  0  0  0  0  0  0  0  0  0  0  0
   -3.1307   -0.2464    0.1801 C   0  0  0  0  0  0  0  0  0  0  0  0
   -4.1991   -0.2837   -0.2500 H   0  0  0  0  0  0  0  0  0  0  0  0
   -3.4980   -0.0558    1.2328 H   0  0  0  0  0  0  0  0  0  0  0  0
   -2.6415   -1.4254   -0.2018 O   0  0  0  0  0  1  0  0  0  0  0  0
  1  3  1  0  0  0  0
  2  1  1  0  0  0  0
  4  7  1  0  0  0  0
  4  1  1  0  0  0  0
  4  5  1  0  0  0  0
  6  4  1  0  0  0  0
  8 10  1  0  0  0  0
  8 11  1  0  0  0  0
  8  1  1  0  0  0  0
  9  8  1  0  0  0  0
 11 13  1  0  0  0  0
 12 11  1  0  0  0  0
 14 11  1  0  0  0  0
M  END
$$$$
Title Card Required
 OpenBabel06272217483D

 14 13  0  0  0  0  0  0  0  0999 V2000
   -0.8976    1.0308    0.3578 C   0  0  0  0  0  0  0  0  0  0  0  0
   -0.1963    1.9755    0.1021 H   0  0  0  0  0  0  0  0  0  0  0  0
   -1.0839    1.0385    1.5393 H   0  0  0  0  0  0  0  0  0  0  0  0
   -0.2518   -0.2927   -0.0172 C   0  0  0  0  0  0  0  0  0  0  0  0
   -0.1587   -1.0578    0.8495 H   0  0  0  0  0  0  0  0  0  0  0  0
   -0.5143   -0.7442   -1.0283 H   0  0  0  0  0  0  0  0  0  0  0  0
    1.7348   -0.0055   -0.0239 Br  0  0  0  0  0  0  0  0  0  0  0  0
   -2.3643    1.0952   -0.1675 C   0  0  0  0  0  0  0  0  0  0  0  0
   -2.2157    1.2365   -1.3537 H   0  0  0  0  0  0  0  0  0  0  0  0
   -2.9714    1.9982   -0.1586 H   0  0  0  0  0  0  0  0  0  0  0  0
   -3.1229   -0.2447    0.1699 C   0  0  0  0  0  0  0  0  0  0  0  0
   -4.2107   -0.3493   -0.2129 H   0  0  0  0  0  0  0  0  0  0  0  0
   -3.5167   -0.0840    1.2744 H   0  0  0  0  0  0  0  0  0  0  0  0
   -2.6436   -1.4177   -0.2033 O   0  0  0  0  0  1  0  0  0  0  0  0
  1  3  1  0  0  0  0
  2  1  1  0  0  0  0
  4  1  1  0  0  0  0
  4  5  1  0  0  0  0
  6  4  1  0  0  0  0
  7  4  1  0  0  0  0
  8 10  1  0  0  0  0
  8 11  1  0  0  0  0
  8  1  1  0  0  0  0
  9  8  1  0  0  0  0
 11 13  1  0  0  0  0
 12 11  1  0  0  0  0
 14 11  1  0  0  0  0
M  END
$$$$
Title Card Required
 OpenBabel06272217483D

 14 13  0  0  0  0  0  0  0  0999 V2000
   -0.8960    1.0293    0.3558 C   0  0  0  0  0  0  0  0  0  0  0  0
   -0.1425    1.9275    0.1887 H   0  0  0  0  0  0  0  0  0  0  0  0
   -1.1369    1.0716    1.4205 H   0  0  0  0  0  0  0  0  0  0  0  0
   -0.2564   -0.2826   -0.0042 C   0  0  0  0  0  0  0  0  0  0  0  0
   -0.1747   -1.0413    0.8155 H   0  0  0  0  0  0  0  0  0  0  0  0
   -0.4860   -0.7377   -1.0377 H   0  0  0  0  0  0  0  0  0  0  0  0
    1.7385   -0.0073   -0.0247 Br  0  0  0  0  0  0  0  0  0  0  0  0
   -2.3811    1.1030   -0.1668 C   0  0  0  0  0  0  0  0  0  0  0  0
   -2.2534    1.1532   -1.3277 H   0  0  0  0  0  0  0  0  0  0  0  0
   -3.0473    1.9351   -0.1153 H   0  0  0  0  0  0  0  0  0  0  0  0
   -3.1216   -0.2456    0.1587 C   0  0  0  0  0  0  0  0  0  0  0  0
   -4.2187   -0.3620   -0.1853 H   0  0  0  0  0  0  0  0  0  0  0  0
   -3.5020   -0.1155    1.3178 H   0  0  0  0  0  0  0  0  0  0  0  0
   -2.6423   -1.4086   -0.2036 O   0  0  0  0  0  1  0  0  0  0  0  0
  1  3  1  0  0  0  0
  2  1  1  0  0  0  0
  4  1  1  0  0  0  0
  4  5  1  0  0  0  0
  6  4  1  0  0  0  0
  7  4  1  0  0  0  0
  8 10  1  0  0  0  0
  8 11  1  0  0  0  0
  8  1  1  0  0  0  0
  9  8  1  0  0  0  0
 11 13  1  0  0  0  0
 12 11  1  0  0  0  0
 14 11  1  0  0  0  0
M  END
$$$$
Title Card Required
 OpenBabel06272217483D

 14 13  0  0  0  0  0  0  0  0999 V2000
   -0.8970    1.0321    0.3553 C   0  0  0  0  0  0  0  0  0  0  0  0
   -0.1367    1.8473    0.2634 H   0  0  0  0  0  0  0  0  0  0  0  0
   -1.1672    1.0962    1.3292 H   0  0  0  0  0  0  0  0  0  0  0  0
   -0.2592   -0.2767    0.0068 C   0  0  0  0  0  0  0  0  0  0  0  0
   -0.2194   -1.0157    0.7603 H   0  0  0  0  0  0  0  0  0  0  0  0
   -0.4590   -0.7142   -1.0026 H   0  0  0  0  0  0  0  0  0  0  0  0
    1.7423   -0.0090   -0.0256 Br  0  0  0  0  0  0  0  0  0  0  0  0
   -2.3939    1.1060   -0.1744 C   0  0  0  0  0  0  0  0  0  0  0  0
   -2.2922    1.0614   -1.2760 H   0  0  0  0  0  0  0  0  0  0  0  0
   -3.1217    1.9077   -0.0398 H   0  0  0  0  0  0  0  0  0  0  0  0
   -3.1264   -0.2491    0.1502 C   0  0  0  0  0  0  0  0  0  0  0  0
   -4.2236   -0.3232   -0.1706 H   0  0  0  0  0  0  0  0  0  0  0  0
   -3.4569   -0.1433    1.3452 H   0  0  0  0  0  0  0  0  0  0  0  0
   -2.6377   -1.3996   -0.2034 O   0  0  0  0  0  1  0  0  0  0  0  0
  1  3  1  0  0  0  0
  2  1  1  0  0  0  0
  4  1  1  0  0  0  0
  4  5  1  0  0  0  0
  6  4  1  0  0  0  0
  7  4  1  0  0  0  0
  8 10  1  0  0  0  0
  8 11  1  0  0  0  0
  8  1  1  0  0  0  0
  9  8  1  0  0  0  0
 11 13  1  0  0  0  0
 12 11  1  0  0  0  0
 14 11  1  0  0  0  0
M  END
$$$$
Title Card Required
 OpenBabel06272217483D

 14 13  0  0  0  0  0  0  0  0999 V2000
   -0.9009    1.0367    0.3517 C   0  0  0  0  0  0  0  0  0  0  0  0
   -0.1526    1.7693    0.3178 H   0  0  0  0  0  0  0  0  0  0  0  0
   -1.1954    1.1106    1.3285 H   0  0  0  0  0  0  0  0  0  0  0  0
   -0.2604   -0.2714    0.0149 C   0  0  0  0  0  0  0  0  0  0  0  0
   -0.2856   -1.0124    0.7206 H   0  0  0  0  0  0  0  0  0  0  0  0
   -0.4373   -0.6813   -0.9474 H   0  0  0  0  0  0  0  0  0  0  0  0
    1.7464   -0.0105   -0.0265 Br  0  0  0  0  0  0  0  0  0  0  0  0
   -2.4051    1.1052   -0.1870 C   0  0  0  0  0  0  0  0  0  0  0  0
   -2.3330    0.9713   -1.2315 H   0  0  0  0  0  0  0  0  0  0  0  0
   -3.1829    1.8982    0.0561 H   0  0  0  0  0  0  0  0  0  0  0  0
   -3.1359   -0.2546    0.1454 C   0  0  0  0  0  0  0  0  0  0  0  0
   -4.2286   -0.2431   -0.1674 H   0  0  0  0  0  0  0  0  0  0  0  0
   -3.3880   -0.1667    1.3546 H   0  0  0  0  0  0  0  0  0  0  0  0
   -2.6302   -1.3903   -0.2033 O   0  0  0  0  0  1  0  0  0  0  0  0
  1  3  1  0  0  0  0
  2  1  1  0  0  0  0
  4  1  1  0  0  0  0
  4  5  1  0  0  0  0
  6  4  1  0  0  0  0
  7  4  1  0  0  0  0
  8 10  1  0  0  0  0
  8 11  1  0  0  0  0
  8  1  1  0  0  0  0
  9  8  1  0  0  0  0
 11 13  1  0  0  0  0
 12 11  1  0  0  0  0
 14 11  1  0  0  0  0
M  END
$$$$
Title Card Required
 OpenBabel06272217483D

 14 13  0  0  0  0  0  0  0  0999 V2000
   -0.9106    1.0398    0.3466 C   0  0  0  0  0  0  0  0  0  0  0  0
   -0.1551    1.7375    0.3435 H   0  0  0  0  0  0  0  0  0  0  0  0
   -1.2222    1.1112    1.4082 H   0  0  0  0  0  0  0  0  0  0  0  0
   -0.2599   -0.2638    0.0214 C   0  0  0  0  0  0  0  0  0  0  0  0
   -0.3667   -1.0505    0.7194 H   0  0  0  0  0  0  0  0  0  0  0  0
   -0.4278   -0.6544   -0.9141 H   0  0  0  0  0  0  0  0  0  0  0  0
    1.7506   -0.0119   -0.0274 Br  0  0  0  0  0  0  0  0  0  0  0  0
   -2.4163    1.1024   -0.2000 C   0  0  0  0  0  0  0  0  0  0  0  0
   -2.3747    0.8938   -1.2321 H   0  0  0  0  0  0  0  0  0  0  0  0
   -3.2092    1.8863    0.1531 H   0  0  0  0  0  0  0  0  0  0  0  0
   -3.1483   -0.2613    0.1456 C   0  0  0  0  0  0  0  0  0  0  0  0
   -4.2356   -0.1352   -0.1746 H   0  0  0  0  0  0  0  0  0  0  0  0
   -3.3056   -0.1842    1.3453 H   0  0  0  0  0  0  0  0  0  0  0  0
   -2.6205   -1.3814   -0.2038 O   0  0  0  0  0  1  0  0  0  0  0  0
  1  3  1  0  0  0  0
  2  1  1  0  0  0  0
  4  1  1  0  0  0  0
  4  5  1  0  0  0  0
  6  4  1  0  0  0  0
  7  4  1  0  0  0  0
  8 11  1  0  0  0  0
  8 10  1  0  0  0  0
  8  1  1  0  0  0  0
  9  8  1  0  0  0  0
 11 13  1  0  0  0  0
 12 11  1  0  0  0  0
 14 11  1  0  0  0  0
M  END
$$$$
Title Card Required
 OpenBabel06272217483D

 14 13  0  0  0  0  0  0  0  0999 V2000
   -0.9273    1.0407    0.3451 C   0  0  0  0  0  0  0  0  0  0  0  0
   -0.1336    1.7643    0.3415 H   0  0  0  0  0  0  0  0  0  0  0  0
   -1.2335    1.0971    1.4962 H   0  0  0  0  0  0  0  0  0  0  0  0
   -0.2575   -0.2556    0.0297 C   0  0  0  0  0  0  0  0  0  0  0  0
   -0.4515   -1.1047    0.7363 H   0  0  0  0  0  0  0  0  0  0  0  0
   -0.4336   -0.6441   -0.9298 H   0  0  0  0  0  0  0  0  0  0  0  0
    1.7547   -0.0133   -0.0283 Br  0  0  0  0  0  0  0  0  0  0  0  0
   -2.4273    1.0983   -0.2111 C   0  0  0  0  0  0  0  0  0  0  0  0
   -2.4160    0.8389   -1.2778 H   0  0  0  0  0  0  0  0  0  0  0  0
   -3.1921    1.8632    0.2309 H   0  0  0  0  0  0  0  0  0  0  0  0
   -3.1614   -0.2678    0.1508 C   0  0  0  0  0  0  0  0  0  0  0  0
   -4.2424   -0.0204   -0.1883 H   0  0  0  0  0  0  0  0  0  0  0  0
   -3.2251   -0.1945    1.3222 H   0  0  0  0  0  0  0  0  0  0  0  0
   -2.6099   -1.3732   -0.2054 O   0  0  0  0  0  1  0  0  0  0  0  0
  1  3  1  0  0  0  0
  2  1  1  0  0  0  0
  4  1  1  0  0  0  0
  4  5  1  0  0  0  0
  6  4  1  0  0  0  0
  7  4  1  0  0  0  0
  8 11  1  0  0  0  0
  8 10  1  0  0  0  0
  8  1  1  0  0  0  0
  9  8  1  0  0  0  0
 11 13  1  0  0  0  0
 12 11  1  0  0  0  0
 14 11  1  0  0  0  0
M  END
$$$$
Title Card Required
 OpenBabel06272217483D

 14 13  0  0  0  0  0  0  0  0999 V2000
   -0.9501    1.0413    0.3498 C   0  0  0  0  0  0  0  0  0  0  0  0
   -0.1151    1.8238    0.3175 H   0  0  0  0  0  0  0  0  0  0  0  0
   -1.2231    1.0711    1.5504 H   0  0  0  0  0  0  0  0  0  0  0  0
   -0.2544   -0.2498    0.0409 C   0  0  0  0  0  0  0  0  0  0  0  0
   -0.5332   -1.1423    0.7420 H   0  0  0  0  0  0  0  0  0  0  0  0
   -0.4501   -0.6417   -0.9762 H   0  0  0  0  0  0  0  0  0  0  0  0
    1.7589   -0.0147   -0.0291 Br  0  0  0  0  0  0  0  0  0  0  0  0
   -2.4381    1.0925   -0.2221 C   0  0  0  0  0  0  0  0  0  0  0  0
   -2.4591    0.8124   -1.3382 H   0  0  0  0  0  0  0  0  0  0  0  0
   -3.1367    1.8304    0.2853 H   0  0  0  0  0  0  0  0  0  0  0  0
   -3.1748   -0.2733    0.1605 C   0  0  0  0  0  0  0  0  0  0  0  0
   -4.2445    0.0908   -0.2033 H   0  0  0  0  0  0  0  0  0  0  0  0
   -3.1529   -0.1983    1.2938 H   0  0  0  0  0  0  0  0  0  0  0  0
   -2.5986   -1.3656   -0.2085 O   0  0  0  0  0  1  0  0  0  0  0  0
  1  3  1  0  0  0  0
  2  1  1  0  0  0  0
  4  1  1  0  0  0  0
  4  5  1  0  0  0  0
  6  4  1  0  0  0  0
  7  4  1  0  0  0  0
  8 11  1  0  0  0  0
  8 10  1  0  0  0  0
  8  1  1  0  0  0  0
  9  8  1  0  0  0  0
 11 13  1  0  0  0  0
 12 11  1  0  0  0  0
 14 11  1  0  0  0  0
M  END
$$$$
Title Card Required
 OpenBabel06272217483D

 14 13  0  0  0  0  0  0  0  0999 V2000
   -0.9777    1.0440    0.3623 C   0  0  0  0  0  0  0  0  0  0  0  0
   -0.1362    1.8864    0.2730 H   0  0  0  0  0  0  0  0  0  0  0  0
   -1.1888    1.0367    1.5512 H   0  0  0  0  0  0  0  0  0  0  0  0
   -0.2520   -0.2489    0.0533 C   0  0  0  0  0  0  0  0  0  0  0  0
   -0.6035   -1.1432    0.7194 H   0  0  0  0  0  0  0  0  0  0  0  0
   -0.4699   -0.6314   -1.0160 H   0  0  0  0  0  0  0  0  0  0  0  0
    1.7635   -0.0163   -0.0300 Br  0  0  0  0  0  0  0  0  0  0  0  0
   -2.4480    1.0827   -0.2355 C   0  0  0  0  0  0  0  0  0  0  0  0
   -2.5045    0.8258   -1.3824 H   0  0  0  0  0  0  0  0  0  0  0  0
   -3.0509    1.7986    0.3155 H   0  0  0  0  0  0  0  0  0  0  0  0
   -3.1884   -0.2768    0.1740 C   0  0  0  0  0  0  0  0  0  0  0  0
   -4.2364    0.1871   -0.2126 H   0  0  0  0  0  0  0  0  0  0  0  0
   -3.0966   -0.1943    1.2738 H   0  0  0  0  0  0  0  0  0  0  0  0
   -2.5867   -1.3581   -0.2138 O   0  0  0  0  0  1  0  0  0  0  0  0
  1  3  1  0  0  0  0
  2  1  1  0  0  0  0
  4  1  1  0  0  0  0
  4  5  1  0  0  0  0
  6  4  1  0  0  0  0
  7  4  1  0  0  0  0
  8 11  1  0  0  0  0
  8 10  1  0  0  0  0
  8  1  1  0  0  0  0
  9  8  1  0  0  0  0
 11 13  1  0  0  0  0
 12 11  1  0  0  0  0
 14 11  1  0  0  0  0
M  END
$$$$
Title Card Required
 OpenBabel06272217483D

 14 13  0  0  0  0  0  0  0  0999 V2000
   -1.0051    1.0493    0.3804 C   0  0  0  0  0  0  0  0  0  0  0  0
   -0.2171    1.9230    0.2173 H   0  0  0  0  0  0  0  0  0  0  0  0
   -1.1404    1.0046    1.4982 H   0  0  0  0  0  0  0  0  0  0  0  0
   -0.2518   -0.2534    0.0626 C   0  0  0  0  0  0  0  0  0  0  0  0
   -0.6466   -1.1061    0.6710 H   0  0  0  0  0  0  0  0  0  0  0  0
   -0.4834   -0.6035   -1.0139 H   0  0  0  0  0  0  0  0  0  0  0  0
    1.7681   -0.0179   -0.0306 Br  0  0  0  0  0  0  0  0  0  0  0  0
   -2.4541    1.0676   -0.2516 C   0  0  0  0  0  0  0  0  0  0  0  0
   -2.5437    0.8851   -1.3857 H   0  0  0  0  0  0  0  0  0  0  0  0
   -2.9666    1.7950    0.3261 H   0  0  0  0  0  0  0  0  0  0  0  0
   -3.1997   -0.2768    0.1883 C   0  0  0  0  0  0  0  0  0  0  0  0
   -4.2178    0.2413   -0.2075 H   0  0  0  0  0  0  0  0  0  0  0  0
   -3.0711   -0.1821    1.2815 H   0  0  0  0  0  0  0  0  0  0  0  0
   -2.5760   -1.3516   -0.2210 O   0  0  0  0  0  1  0  0  0  0  0  0
  1  3  1  0  0  0  0
  2  1  1  0  0  0  0
  4  1  1  0  0  0  0
  4  5  1  0  0  0  0
  6  4  1  0  0  0  0
  7  4  1  0  0  0  0
  8 11  1  0  0  0  0
  8 10  1  0  0  0  0
  8  1  1  0  0  0  0
  9  8  1  0  0  0  0
 11 13  1  0  0  0  0
 12 11  1  0  0  0  0
 14 11  1  0  0  0  0
M  END
$$$$
Title Card Required
 OpenBabel06272217483D

 14 13  0  0  0  0  0  0  0  0999 V2000
   -1.0277    1.0551    0.3971 C   0  0  0  0  0  0  0  0  0  0  0  0
   -0.3363    1.9296    0.1634 H   0  0  0  0  0  0  0  0  0  0  0  0
   -1.0978    0.9841    1.4374 H   0  0  0  0  0  0  0  0  0  0  0  0
   -0.2540   -0.2592    0.0663 C   0  0  0  0  0  0  0  0  0  0  0  0
   -0.6636   -1.0628    0.6239 H   0  0  0  0  0  0  0  0  0  0  0  0
   -0.4872   -0.5647   -0.9758 H   0  0  0  0  0  0  0  0  0  0  0  0
    1.7723   -0.0194   -0.0311 Br  0  0  0  0  0  0  0  0  0  0  0  0
   -2.4555    1.0493   -0.2669 C   0  0  0  0  0  0  0  0  0  0  0  0
   -2.5694    0.9719   -1.3593 H   0  0  0  0  0  0  0  0  0  0  0  0
   -2.9101    1.8297    0.3260 H   0  0  0  0  0  0  0  0  0  0  0  0
   -3.2069   -0.2733    0.2005 C   0  0  0  0  0  0  0  0  0  0  0  0
   -4.1981    0.2440   -0.1873 H   0  0  0  0  0  0  0  0  0  0  0  0
   -3.0781   -0.1655    1.3129 H   0  0  0  0  0  0  0  0  0  0  0  0
   -2.5681   -1.3462   -0.2289 O   0  0  0  0  0  1  0  0  0  0  0  0
  1  3  1  0  0  0  0
  2  1  1  0  0  0  0
  4  1  1  0  0  0  0
  4  5  1  0  0  0  0
  6  4  1  0  0  0  0
  7  4  1  0  0  0  0
  8 11  1  0  0  0  0
  8 10  1  0  0  0  0
  8  1  1  0  0  0  0
  9  8  1  0  0  0  0
 11 13  1  0  0  0  0
 12 11  1  0  0  0  0
 14 11  1  0  0  0  0
M  END
$$$$
Title Card Required
 OpenBabel06272217483D

 14 13  0  0  0  0  0  0  0  0999 V2000
   -1.0471    1.0596    0.4081 C   0  0  0  0  0  0  0  0  0  0  0  0
   -0.4744    1.9237    0.1101 H   0  0  0  0  0  0  0  0  0  0  0  0
   -1.0703    0.9747    1.4220 H   0  0  0  0  0  0  0  0  0  0  0  0
   -0.2570   -0.2622    0.0654 C   0  0  0  0  0  0  0  0  0  0  0  0
   -0.6709   -1.0447    0.6003 H   0  0  0  0  0  0  0  0  0  0  0  0
   -0.4847   -0.5227   -0.9293 H   0  0  0  0  0  0  0  0  0  0  0  0
    1.7763   -0.0209   -0.0314 Br  0  0  0  0  0  0  0  0  0  0  0  0
   -2.4540    1.0291   -0.2781 C   0  0  0  0  0  0  0  0  0  0  0  0
   -2.5830    1.0764   -1.3322 H   0  0  0  0  0  0  0  0  0  0  0  0
   -2.8748    1.8890    0.3113 H   0  0  0  0  0  0  0  0  0  0  0  0
   -3.2100   -0.2666    0.2118 C   0  0  0  0  0  0  0  0  0  0  0  0
   -4.1865    0.2016   -0.1546 H   0  0  0  0  0  0  0  0  0  0  0  0
   -3.1121   -0.1462    1.3539 H   0  0  0  0  0  0  0  0  0  0  0  0
   -2.5624   -1.3411   -0.2375 O   0  0  0  0  0  1  0  0  0  0  0  0
  1  3  1  0  0  0  0
  2  1  1  0  0  0  0
  4  1  1  0  0  0  0
  4  5  1  0  0  0  0
  6  4  1  0  0  0  0
  7  4  1  0  0  0  0
  8 11  1  0  0  0  0
  8 10  1  0  0  0  0
  8  1  1  0  0  0  0
  9  8  1  0  0  0  0
 11 13  1  0  0  0  0
 12 11  1  0  0  0  0
 14 11  1  0  0  0  0
M  END
$$$$
Title Card Required
 OpenBabel06272217483D

 14 13  0  0  0  0  0  0  0  0999 V2000
   -1.0643    1.0601    0.4113 C   0  0  0  0  0  0  0  0  0  0  0  0
   -0.6020    1.9302    0.0542 H   0  0  0  0  0  0  0  0  0  0  0  0
   -1.0623    0.9774    1.4749 H   0  0  0  0  0  0  0  0  0  0  0  0
   -0.2599   -0.2594    0.0620 C   0  0  0  0  0  0  0  0  0  0  0  0
   -0.6768   -1.0689    0.6125 H   0  0  0  0  0  0  0  0  0  0  0  0
   -0.4823   -0.4894   -0.9139 H   0  0  0  0  0  0  0  0  0  0  0  0
    1.7801   -0.0225   -0.0316 Br  0  0  0  0  0  0  0  0  0  0  0  0
   -2.4511    1.0097   -0.2812 C   0  0  0  0  0  0  0  0  0  0  0  0
   -2.5841    1.1875   -1.3304 H   0  0  0  0  0  0  0  0  0  0  0  0
   -2.8537    1.9492    0.2742 H   0  0  0  0  0  0  0  0  0  0  0  0
   -3.2085   -0.2575    0.2225 C   0  0  0  0  0  0  0  0  0  0  0  0
   -4.1954    0.1216   -0.1154 H   0  0  0  0  0  0  0  0  0  0  0  0
   -3.1669   -0.1270    1.3880 H   0  0  0  0  0  0  0  0  0  0  0  0
   -2.5589   -1.3361   -0.2463 O   0  0  0  0  0  1  0  0  0  0  0  0
  1  3  1  0  0  0  0
  2  1  1  0  0  0  0
  4  1  1  0  0  0  0
  4  5  1  0  0  0  0
  6  4  1  0  0  0  0
  7  4  1  0  0  0  0
  8 11  1  0  0  0  0
  8 10  1  0  0  0  0
  8  1  1  0  0  0  0
  9  8  1  0  0  0  0
 11 13  1  0  0  0  0
 12 11  1  0  0  0  0
 14 11  1  0  0  0  0
M  END
$$$$
Title Card Required
 OpenBabel06272217483D

 14 13  0  0  0  0  0  0  0  0999 V2000
   -1.0792    1.0552    0.4105 C   0  0  0  0  0  0  0  0  0  0  0  0
   -0.6966    1.9639   -0.0040 H   0  0  0  0  0  0  0  0  0  0  0  0
   -1.0716    0.9956    1.5512 H   0  0  0  0  0  0  0  0  0  0  0  0
   -0.2628   -0.2522    0.0592 C   0  0  0  0  0  0  0  0  0  0  0  0
   -0.6739   -1.1134    0.6436 H   0  0  0  0  0  0  0  0  0  0  0  0
   -0.4838   -0.4720   -0.9479 H   0  0  0  0  0  0  0  0  0  0  0  0
    1.7836   -0.0241   -0.0316 Br  0  0  0  0  0  0  0  0  0  0  0  0
   -2.4487    0.9940   -0.2762 C   0  0  0  0  0  0  0  0  0  0  0  0
   -2.5718    1.2897   -1.3485 H   0  0  0  0  0  0  0  0  0  0  0  0
   -2.8420    1.9903    0.2178 H   0  0  0  0  0  0  0  0  0  0  0  0
   -3.2030   -0.2477    0.2324 C   0  0  0  0  0  0  0  0  0  0  0  0
   -4.2311    0.0197   -0.0781 H   0  0  0  0  0  0  0  0  0  0  0  0
   -3.2305   -0.1108    1.4049 H   0  0  0  0  0  0  0  0  0  0  0  0
   -2.5575   -1.3310   -0.2542 O   0  0  0  0  0  1  0  0  0  0  0  0
  1  3  1  0  0  0  0
  2  1  1  0  0  0  0
  4  1  1  0  0  0  0
  4  5  1  0  0  0  0
  6  4  1  0  0  0  0
  7  4  1  0  0  0  0
  8 10  1  0  0  0  0
  8 11  1  0  0  0  0
  8  1  1  0  0  0  0
  9  8  1  0  0  0  0
 11 13  1  0  0  0  0
 12 11  1  0  0  0  0
 14 11  1  0  0  0  0
M  END
$$$$
Title Card Required
 OpenBabel06272217483D

 14 13  0  0  0  0  0  0  0  0999 V2000
   -1.0923    1.0459    0.4094 C   0  0  0  0  0  0  0  0  0  0  0  0
   -0.7643    2.0129   -0.0594 H   0  0  0  0  0  0  0  0  0  0  0  0
   -1.0952    1.0316    1.6050 H   0  0  0  0  0  0  0  0  0  0  0  0
   -0.2670   -0.2430    0.0569 C   0  0  0  0  0  0  0  0  0  0  0  0
   -0.6519   -1.1497    0.6715 H   0  0  0  0  0  0  0  0  0  0  0  0
   -0.4857   -0.4658   -1.0090 H   0  0  0  0  0  0  0  0  0  0  0  0
    1.7870   -0.0257   -0.0315 Br  0  0  0  0  0  0  0  0  0  0  0  0
   -2.4481    0.9827   -0.2657 C   0  0  0  0  0  0  0  0  0  0  0  0
   -2.5431    1.3737   -1.3623 H   0  0  0  0  0  0  0  0  0  0  0  0
   -2.8373    2.0071    0.1477 H   0  0  0  0  0  0  0  0  0  0  0  0
   -3.1949   -0.2378    0.2415 C   0  0  0  0  0  0  0  0  0  0  0  0
   -4.2886   -0.0997   -0.0436 H   0  0  0  0  0  0  0  0  0  0  0  0
   -3.2962   -0.0978    1.4038 H   0  0  0  0  0  0  0  0  0  0  0  0
   -2.5577   -1.3253   -0.2614 O   0  0  0  0  0  1  0  0  0  0  0  0
  1  3  1  0  0  0  0
  2  1  1  0  0  0  0
  4  1  1  0  0  0  0
  4  5  1  0  0  0  0
  6  4  1  0  0  0  0
  7  4  1  0  0  0  0
  8 10  1  0  0  0  0
  8 11  1  0  0  0  0
  8  1  1  0  0  0  0
  9  8  1  0  0  0  0
 11 13  1  0  0  0  0
 12 11  1  0  0  0  0
 14 11  1  0  0  0  0
M  END
$$$$
Title Card Required
 OpenBabel06272217483D

 14 13  0  0  0  0  0  0  0  0999 V2000
   -1.1033    1.0339    0.4091 C   0  0  0  0  0  0  0  0  0  0  0  0
   -0.8124    2.0511   -0.0993 H   0  0  0  0  0  0  0  0  0  0  0  0
   -1.1341    1.0886    1.6066 H   0  0  0  0  0  0  0  0  0  0  0  0
   -0.2744   -0.2330    0.0527 C   0  0  0  0  0  0  0  0  0  0  0  0
   -0.6001   -1.1563    0.6796 H   0  0  0  0  0  0  0  0  0  0  0  0
   -0.4813   -0.4637   -1.0608 H   0  0  0  0  0  0  0  0  0  0  0  0
    1.7907   -0.0274   -0.0313 Br  0  0  0  0  0  0  0  0  0  0  0  0
   -2.4508    0.9774   -0.2511 C   0  0  0  0  0  0  0  0  0  0  0  0
   -2.4922    1.4234   -1.3504 H   0  0  0  0  0  0  0  0  0  0  0  0
   -2.8424    1.9966    0.0695 H   0  0  0  0  0  0  0  0  0  0  0  0
   -3.1862   -0.2287    0.2493 C   0  0  0  0  0  0  0  0  0  0  0  0
   -4.3529   -0.2384   -0.0091 H   0  0  0  0  0  0  0  0  0  0  0  0
   -3.3587   -0.0878    1.3855 H   0  0  0  0  0  0  0  0  0  0  0  0
   -2.5596   -1.3180   -0.2678 O   0  0  0  0  0  1  0  0  0  0  0  0
  1  3  1  0  0  0  0
  2  1  1  0  0  0  0
  4  1  1  0  0  0  0
  4  5  1  0  0  0  0
  6  4  1  0  0  0  0
  7  4  1  0  0  0  0
  8 10  1  0  0  0  0
  8 11  1  0  0  0  0
  8  1  1  0  0  0  0
  9  8  1  0  0  0  0
 11 13  1  0  0  0  0
 12 11  1  0  0  0  0
 14 11  1  0  0  0  0
M  END
$$$$
Title Card Required
 OpenBabel06272217483D

 14 13  0  0  0  0  0  0  0  0999 V2000
   -1.1105    1.0231    0.4095 C   0  0  0  0  0  0  0  0  0  0  0  0
   -0.8342    2.0439   -0.1022 H   0  0  0  0  0  0  0  0  0  0  0  0
   -1.1832    1.1595    1.5395 H   0  0  0  0  0  0  0  0  0  0  0  0
   -0.2853   -0.2240    0.0437 C   0  0  0  0  0  0  0  0  0  0  0  0
   -0.5184   -1.1213    0.6594 H   0  0  0  0  0  0  0  0  0  0  0  0
   -0.4666   -0.4604   -1.0630 H   0  0  0  0  0  0  0  0  0  0  0  0
    1.7945   -0.0293   -0.0308 Br  0  0  0  0  0  0  0  0  0  0  0  0
   -2.4580    0.9804   -0.2350 C   0  0  0  0  0  0  0  0  0  0  0  0
   -2.4206    1.4091   -1.3051 H   0  0  0  0  0  0  0  0  0  0  0  0
   -2.8656    1.9662    0.0075 H   0  0  0  0  0  0  0  0  0  0  0  0
   -3.1816   -0.2242    0.2533 C   0  0  0  0  0  0  0  0  0  0  0  0
   -4.3917   -0.3722    0.0231 H   0  0  0  0  0  0  0  0  0  0  0  0
   -3.4011   -0.0817    1.3584 H   0  0  0  0  0  0  0  0  0  0  0  0
   -2.5625   -1.3088   -0.2721 O   0  0  0  0  0  1  0  0  0  0  0  0
  1  3  1  0  0  0  0
  2  1  1  0  0  0  0
  4  1  1  0  0  0  0
  4  5  1  0  0  0  0
  6  4  1  0  0  0  0
  7  4  1  0  0  0  0
  8 10  1  0  0  0  0
  8 11  1  0  0  0  0
  8  1  1  0  0  0  0
  9  8  1  0  0  0  0
 11 13  1  0  0  0  0
 12 11  1  0  0  0  0
 14 11  1  0  0  0  0
M  END
$$$$
Title Card Required
 OpenBabel06272217483D

 14 13  0  0  0  0  0  0  0  0999 V2000
   -1.1135    1.0166    0.4090 C   0  0  0  0  0  0  0  0  0  0  0  0
   -0.8244    1.9912   -0.0702 H   0  0  0  0  0  0  0  0  0  0  0  0
   -1.2275    1.2243    1.4473 H   0  0  0  0  0  0  0  0  0  0  0  0
   -0.2969   -0.2157    0.0307 C   0  0  0  0  0  0  0  0  0  0  0  0
   -0.4319   -1.0732    0.6308 H   0  0  0  0  0  0  0  0  0  0  0  0
   -0.4481   -0.4560   -1.0209 H   0  0  0  0  0  0  0  0  0  0  0  0
    1.7979   -0.0309   -0.0302 Br  0  0  0  0  0  0  0  0  0  0  0  0
   -2.4679    0.9894   -0.2211 C   0  0  0  0  0  0  0  0  0  0  0  0
   -2.3463    1.3321   -1.2552 H   0  0  0  0  0  0  0  0  0  0  0  0
   -2.9110    1.9467   -0.0121 H   0  0  0  0  0  0  0  0  0  0  0  0
   -3.1839   -0.2270    0.2518 C   0  0  0  0  0  0  0  0  0  0  0  0
   -4.3878   -0.4626    0.0460 H   0  0  0  0  0  0  0  0  0  0  0  0
   -3.4116   -0.0796    1.3422 H   0  0  0  0  0  0  0  0  0  0  0  0
   -2.5653   -1.2992   -0.2736 O   0  0  0  0  0  1  0  0  0  0  0  0
  1  3  1  0  0  0  0
  2  1  1  0  0  0  0
  4  1  1  0  0  0  0
  4  5  1  0  0  0  0
  6  4  1  0  0  0  0
  7  4  1  0  0  0  0
  8 10  1  0  0  0  0
  8 11  1  0  0  0  0
  8  1  1  0  0  0  0
  9  8  1  0  0  0  0
 11 13  1  0  0  0  0
 12 11  1  0  0  0  0
 14 11  1  0  0  0  0
M  END
$$$$
Title Card Required
 OpenBabel06272217483D

 14 13  0  0  0  0  0  0  0  0999 V2000
   -1.1139    1.0126    0.4052 C   0  0  0  0  0  0  0  0  0  0  0  0
   -0.7825    1.9238   -0.0258 H   0  0  0  0  0  0  0  0  0  0  0  0
   -1.2646    1.2818    1.3902 H   0  0  0  0  0  0  0  0  0  0  0  0
   -0.3080   -0.2053    0.0158 C   0  0  0  0  0  0  0  0  0  0  0  0
   -0.3527   -1.0478    0.6204 H   0  0  0  0  0  0  0  0  0  0  0  0
   -0.4337   -0.4565   -0.9785 H   0  0  0  0  0  0  0  0  0  0  0  0
    1.8012   -0.0323   -0.0296 Br  0  0  0  0  0  0  0  0  0  0  0  0
   -2.4799    1.0012   -0.2079 C   0  0  0  0  0  0  0  0  0  0  0  0
   -2.2755    1.2137   -1.2326 H   0  0  0  0  0  0  0  0  0  0  0  0
   -2.9766    1.9505    0.0057 H   0  0  0  0  0  0  0  0  0  0  0  0
   -3.1923   -0.2363    0.2455 C   0  0  0  0  0  0  0  0  0  0  0  0
   -4.3523   -0.5073    0.0581 H   0  0  0  0  0  0  0  0  0  0  0  0
   -3.3945   -0.0801    1.3454 H   0  0  0  0  0  0  0  0  0  0  0  0
   -2.5671   -1.2895   -0.2728 O   0  0  0  0  0  1  0  0  0  0  0  0
  1  3  1  0  0  0  0
  2  1  1  0  0  0  0
  4  1  1  0  0  0  0
  4  5  1  0  0  0  0
  6  4  1  0  0  0  0
  7  4  1  0  0  0  0
  8 10  1  0  0  0  0
  8 11  1  0  0  0  0
  8  1  1  0  0  0  0
  9  8  1  0  0  0  0
 11 13  1  0  0  0  0
 12 11  1  0  0  0  0
 14 11  1  0  0  0  0
M  END
$$$$
Title Card Required
 OpenBabel06272217483D

 14 13  0  0  0  0  0  0  0  0999 V2000
   -1.1136    1.0085    0.3988 C   0  0  0  0  0  0  0  0  0  0  0  0
   -0.7074    1.8802    0.0044 H   0  0  0  0  0  0  0  0  0  0  0  0
   -1.2921    1.3297    1.3983 H   0  0  0  0  0  0  0  0  0  0  0  0
   -0.3179   -0.1925    0.0032 C   0  0  0  0  0  0  0  0  0  0  0  0
   -0.2875   -1.0542    0.6353 H   0  0  0  0  0  0  0  0  0  0  0  0
   -0.4301   -0.4691   -0.9809 H   0  0  0  0  0  0  0  0  0  0  0  0
    1.8042   -0.0336   -0.0288 Br  0  0  0  0  0  0  0  0  0  0  0  0
   -2.4937    1.0143   -0.1952 C   0  0  0  0  0  0  0  0  0  0  0  0
   -2.2170    1.0771   -1.2492 H   0  0  0  0  0  0  0  0  0  0  0  0
   -3.0470    1.9653    0.0435 H   0  0  0  0  0  0  0  0  0  0  0  0
   -3.2048   -0.2500    0.2365 C   0  0  0  0  0  0  0  0  0  0  0  0
   -4.3029   -0.5082    0.0581 H   0  0  0  0  0  0  0  0  0  0  0  0
   -3.3557   -0.0837    1.3662 H   0  0  0  0  0  0  0  0  0  0  0  0
   -2.5673   -1.2807   -0.2707 O   0  0  0  0  0  1  0  0  0  0  0  0
  1  3  1  0  0  0  0
  2  1  1  0  0  0  0
  4  1  1  0  0  0  0
  4  5  1  0  0  0  0
  6  4  1  0  0  0  0
  7  4  1  0  0  0  0
  8 10  1  0  0  0  0
  8 11  1  0  0  0  0
  8  1  1  0  0  0  0
  9  8  1  0  0  0  0
 11 13  1  0  0  0  0
 12 11  1  0  0  0  0
 14 11  1  0  0  0  0
M  END
$$$$
Title Card Required
 OpenBabel06272217483D

 14 13  0  0  0  0  0  0  0  0999 V2000
   -1.1140    1.0047    0.3932 C   0  0  0  0  0  0  0  0  0  0  0  0
   -0.6075    1.8722    0.0120 H   0  0  0  0  0  0  0  0  0  0  0  0
   -1.3051    1.3594    1.4439 H   0  0  0  0  0  0  0  0  0  0  0  0
   -0.3263   -0.1805   -0.0053 C   0  0  0  0  0  0  0  0  0  0  0  0
   -0.2385   -1.0691    0.6578 H   0  0  0  0  0  0  0  0  0  0  0  0
   -0.4370   -0.4919   -1.0267 H   0  0  0  0  0  0  0  0  0  0  0  0
    1.8071   -0.0345   -0.0282 Br  0  0  0  0  0  0  0  0  0  0  0  0
   -2.5089    1.0281   -0.1843 C   0  0  0  0  0  0  0  0  0  0  0  0
   -2.1814    0.9402   -1.2819 H   0  0  0  0  0  0  0  0  0  0  0  0
   -3.1053    1.9737    0.0821 H   0  0  0  0  0  0  0  0  0  0  0  0
   -3.2188   -0.2652    0.2272 C   0  0  0  0  0  0  0  0  0  0  0  0
   -4.2634   -0.4753    0.0462 H   0  0  0  0  0  0  0  0  0  0  0  0
   -3.3032   -0.0915    1.3945 H   0  0  0  0  0  0  0  0  0  0  0  0
   -2.5656   -1.2734   -0.2679 O   0  0  0  0  0  1  0  0  0  0  0  0
  1  3  1  0  0  0  0
  2  1  1  0  0  0  0
  4  1  1  0  0  0  0
  4  5  1  0  0  0  0
  6  4  1  0  0  0  0
  7  4  1  0  0  0  0
  8 10  1  0  0  0  0
  8 11  1  0  0  0  0
  8  1  1  0  0  0  0
  9  8  1  0  0  0  0
 11 13  1  0  0  0  0
 12 11  1  0  0  0  0
 14 11  1  0  0  0  0
M  END
$$$$
Title Card Required
 OpenBabel06272217483D

 14 13  0  0  0  0  0  0  0  0999 V2000
   -1.1152    1.0041    0.3902 C   0  0  0  0  0  0  0  0  0  0  0  0
   -0.4916    1.8799    0.0069 H   0  0  0  0  0  0  0  0  0  0  0  0
   -1.2977    1.3625    1.4935 H   0  0  0  0  0  0  0  0  0  0  0  0
   -0.3339   -0.1720   -0.0119 C   0  0  0  0  0  0  0  0  0  0  0  0
   -0.2053   -1.0698    0.6713 H   0  0  0  0  0  0  0  0  0  0  0  0
   -0.4514   -0.5163   -1.0841 H   0  0  0  0  0  0  0  0  0  0  0  0
    1.8102   -0.0354   -0.0274 Br  0  0  0  0  0  0  0  0  0  0  0  0
   -2.5262    1.0432   -0.1765 C   0  0  0  0  0  0  0  0  0  0  0  0
   -2.1778    0.8044   -1.3040 H   0  0  0  0  0  0  0  0  0  0  0  0
   -3.1470    1.9676    0.1135 H   0  0  0  0  0  0  0  0  0  0  0  0
   -3.2325   -0.2815    0.2189 C   0  0  0  0  0  0  0  0  0  0  0  0
   -4.2594   -0.4136    0.0194 H   0  0  0  0  0  0  0  0  0  0  0  0
   -3.2391   -0.1066    1.4222 H   0  0  0  0  0  0  0  0  0  0  0  0
   -2.5619   -1.2675   -0.2648 O   0  0  0  0  0  1  0  0  0  0  0  0
  1  3  1  0  0  0  0
  2  1  1  0  0  0  0
  4  1  1  0  0  0  0
  4  5  1  0  0  0  0
  6  4  1  0  0  0  0
  7  4  1  0  0  0  0
  8 10  1  0  0  0  0
  8 11  1  0  0  0  0
  8  1  1  0  0  0  0
  9  8  1  0  0  0  0
 11 13  1  0  0  0  0
 12 11  1  0  0  0  0
 14 11  1  0  0  0  0
M  END
$$$$
Title Card Required
 OpenBabel06272217483D

 14 13  0  0  0  0  0  0  0  0999 V2000
   -1.1162    1.0115    0.3913 C   0  0  0  0  0  0  0  0  0  0  0  0
   -0.3854    1.8750    0.0027 H   0  0  0  0  0  0  0  0  0  0  0  0
   -1.2614    1.3262    1.5199 H   0  0  0  0  0  0  0  0  0  0  0  0
   -0.3406   -0.1705   -0.0190 C   0  0  0  0  0  0  0  0  0  0  0  0
   -0.1962   -1.0422    0.6640 H   0  0  0  0  0  0  0  0  0  0  0  0
   -0.4707   -0.5291   -1.1134 H   0  0  0  0  0  0  0  0  0  0  0  0
    1.8137   -0.0360   -0.0266 Br  0  0  0  0  0  0  0  0  0  0  0  0
   -2.5454    1.0583   -0.1734 C   0  0  0  0  0  0  0  0  0  0  0  0
   -2.2216    0.6871   -1.2927 H   0  0  0  0  0  0  0  0  0  0  0  0
   -3.1663    1.9449    0.1288 H   0  0  0  0  0  0  0  0  0  0  0  0
   -3.2436   -0.2977    0.2138 C   0  0  0  0  0  0  0  0  0  0  0  0
   -4.3151   -0.3231   -0.0246 H   0  0  0  0  0  0  0  0  0  0  0  0
   -3.1710   -0.1337    1.4371 H   0  0  0  0  0  0  0  0  0  0  0  0
   -2.5556   -1.2636   -0.2616 O   0  0  0  0  0  1  0  0  0  0  0  0
  1  3  1  0  0  0  0
  2  1  1  0  0  0  0
  4  1  1  0  0  0  0
  4  5  1  0  0  0  0
  6  4  1  0  0  0  0
  7  4  1  0  0  0  0
  8 10  1  0  0  0  0
  8 11  1  0  0  0  0
  8  1  1  0  0  0  0
  9  8  1  0  0  0  0
 11 13  1  0  0  0  0
 12 11  1  0  0  0  0
 14 11  1  0  0  0  0
M  END
$$$$
Title Card Required
 OpenBabel06272217483D

 14 13  0  0  0  0  0  0  0  0999 V2000
   -1.1156    1.0277    0.3959 C   0  0  0  0  0  0  0  0  0  0  0  0
   -0.3287    1.8429    0.0102 H   0  0  0  0  0  0  0  0  0  0  0  0
   -1.2010    1.2547    1.5090 H   0  0  0  0  0  0  0  0  0  0  0  0
   -0.3460   -0.1766   -0.0277 C   0  0  0  0  0  0  0  0  0  0  0  0
   -0.2157   -0.9989    0.6415 H   0  0  0  0  0  0  0  0  0  0  0  0
   -0.4898   -0.5221   -1.0922 H   0  0  0  0  0  0  0  0  0  0  0  0
    1.8172   -0.0364   -0.0258 Br  0  0  0  0  0  0  0  0  0  0  0  0
   -2.5627    1.0686   -0.1762 C   0  0  0  0  0  0  0  0  0  0  0  0
   -2.3110    0.6229   -1.2441 H   0  0  0  0  0  0  0  0  0  0  0  0
   -3.1664    1.9206    0.1227 H   0  0  0  0  0  0  0  0  0  0  0  0
   -3.2513   -0.3102    0.2140 C   0  0  0  0  0  0  0  0  0  0  0  0
   -4.3959   -0.2197   -0.0711 H   0  0  0  0  0  0  0  0  0  0  0  0
   -3.1214   -0.1727    1.4265 H   0  0  0  0  0  0  0  0  0  0  0  0
   -2.5480   -1.2628   -0.2594 O   0  0  0  0  0  1  0  0  0  0  0  0
  1  3  1  0  0  0  0
  2  1  1  0  0  0  0
  4  7  1  0  0  0  0
  4  1  1  0  0  0  0
  4  5  1  0  0  0  0
  6  4  1  0  0  0  0
  8 10  1  0  0  0  0
  8 11  1  0  0  0  0
  8  1  1  0  0  0  0
  9  8  1  0  0  0  0
 11 13  1  0  0  0  0
 12 11  1  0  0  0  0
 14 11  1  0  0  0  0
M  END
$$$$
Title Card Required
 OpenBabel06272217483D

 14 13  0  0  0  0  0  0  0  0999 V2000
   -1.1126    1.0486    0.4011 C   0  0  0  0  0  0  0  0  0  0  0  0
   -0.3256    1.7955    0.0285 H   0  0  0  0  0  0  0  0  0  0  0  0
   -1.1306    1.1675    1.4801 H   0  0  0  0  0  0  0  0  0  0  0  0
   -0.3506   -0.1857   -0.0376 C   0  0  0  0  0  0  0  0  0  0  0  0
   -0.2543   -0.9727    0.6277 H   0  0  0  0  0  0  0  0  0  0  0  0
   -0.5068   -0.5039   -1.0449 H   0  0  0  0  0  0  0  0  0  0  0  0
    1.8206   -0.0365   -0.0251 Br  0  0  0  0  0  0  0  0  0  0  0  0
   -2.5758    1.0723   -0.1826 C   0  0  0  0  0  0  0  0  0  0  0  0
   -2.4251    0.6160   -1.1811 H   0  0  0  0  0  0  0  0  0  0  0  0
   -3.1647    1.9156    0.1020 H   0  0  0  0  0  0  0  0  0  0  0  0
   -3.2578   -0.3178    0.2191 C   0  0  0  0  0  0  0  0  0  0  0  0
   -4.4507   -0.1236   -0.1048 H   0  0  0  0  0  0  0  0  0  0  0  0
   -3.1019   -0.2198    1.3938 H   0  0  0  0  0  0  0  0  0  0  0  0
   -2.5404   -1.2647   -0.2584 O   0  0  0  0  0  1  0  0  0  0  0  0
  1  3  1  0  0  0  0
  2  1  1  0  0  0  0
  4  7  1  0  0  0  0
  4  1  1  0  0  0  0
  4  5  1  0  0  0  0
  6  4  1  0  0  0  0
  8 10  1  0  0  0  0
  8 11  1  0  0  0  0
  8  1  1  0  0  0  0
  9  8  1  0  0  0  0
 11 13  1  0  0  0  0
 12 11  1  0  0  0  0
 14 11  1  0  0  0  0
M  END
$$$$
Title Card Required
 OpenBabel06272217483D

 14 13  0  0  0  0  0  0  0  0999 V2000
   -1.1076    1.0710    0.4042 C   0  0  0  0  0  0  0  0  0  0  0  0
   -0.3593    1.7535    0.0515 H   0  0  0  0  0  0  0  0  0  0  0  0
   -1.0571    1.0744    1.4637 H   0  0  0  0  0  0  0  0  0  0  0  0
   -0.3554   -0.1940   -0.0474 C   0  0  0  0  0  0  0  0  0  0  0  0
   -0.3066   -0.9838    0.6390 H   0  0  0  0  0  0  0  0  0  0  0  0
   -0.5257   -0.4891   -1.0133 H   0  0  0  0  0  0  0  0  0  0  0  0
    1.8239   -0.0365   -0.0243 Br  0  0  0  0  0  0  0  0  0  0  0  0
   -2.5853    1.0705   -0.1894 C   0  0  0  0  0  0  0  0  0  0  0  0
   -2.5510    0.6521   -1.1382 H   0  0  0  0  0  0  0  0  0  0  0  0
   -3.1719    1.9376    0.0712 H   0  0  0  0  0  0  0  0  0  0  0  0
   -3.2642   -0.3209    0.2284 C   0  0  0  0  0  0  0  0  0  0  0  0
   -4.4639   -0.0425   -0.1225 H   0  0  0  0  0  0  0  0  0  0  0  0
   -3.1155   -0.2745    1.3487 H   0  0  0  0  0  0  0  0  0  0  0  0
   -2.5330   -1.2689   -0.2588 O   0  0  0  0  0  1  0  0  0  0  0  0
  1  3  1  0  0  0  0
  2  1  1  0  0  0  0
  4  7  1  0  0  0  0
  4  1  1  0  0  0  0
  4  5  1  0  0  0  0
  6  4  1  0  0  0  0
  8 10  1  0  0  0  0
  8 11  1  0  0  0  0
  8  1  1  0  0  0  0
  9  8  1  0  0  0  0
 11 13  1  0  0  0  0
 12 11  1  0  0  0  0
 14 11  1  0  0  0  0
M  END
$$$$
Title Card Required
 OpenBabel06272217483D

 14 13  0  0  0  0  0  0  0  0999 V2000
   -1.1028    1.0904    0.4037 C   0  0  0  0  0  0  0  0  0  0  0  0
   -0.3984    1.7536    0.0650 H   0  0  0  0  0  0  0  0  0  0  0  0
   -0.9884    0.9839    1.4800 H   0  0  0  0  0  0  0  0  0  0  0  0
   -0.3604   -0.2004   -0.0534 C   0  0  0  0  0  0  0  0  0  0  0  0
   -0.3709   -1.0254    0.6680 H   0  0  0  0  0  0  0  0  0  0  0  0
   -0.5502   -0.4917   -1.0381 H   0  0  0  0  0  0  0  0  0  0  0  0
    1.8272   -0.0363   -0.0236 Br  0  0  0  0  0  0  0  0  0  0  0  0
   -2.5919    1.0661   -0.1914 C   0  0  0  0  0  0  0  0  0  0  0  0
   -2.6747    0.7118   -1.1642 H   0  0  0  0  0  0  0  0  0  0  0  0
   -3.1851    1.9784    0.0313 H   0  0  0  0  0  0  0  0  0  0  0  0
   -3.2706   -0.3195    0.2404 C   0  0  0  0  0  0  0  0  0  0  0  0
   -4.4307    0.0126   -0.1220 H   0  0  0  0  0  0  0  0  0  0  0  0
   -3.1646   -0.3333    1.3136 H   0  0  0  0  0  0  0  0  0  0  0  0
   -2.5263   -1.2750   -0.2608 O   0  0  0  0  0  1  0  0  0  0  0  0
  1  3  1  0  0  0  0
  2  1  1  0  0  0  0
  4  7  1  0  0  0  0
  4  1  1  0  0  0  0
  4  5  1  0  0  0  0
  6  4  1  0  0  0  0
  8 10  1  0  0  0  0
  8 11  1  0  0  0  0
  8  1  1  0  0  0  0
  9  8  1  0  0  0  0
 11 13  1  0  0  0  0
 12 11  1  0  0  0  0
 14 11  1  0  0  0  0
M  END
$$$$
Title Card Required
 OpenBabel06272217483D

 14 13  0  0  0  0  0  0  0  0999 V2000
   -1.1004    1.1017    0.4014 C   0  0  0  0  0  0  0  0  0  0  0  0
   -0.4110    1.8189    0.0575 H   0  0  0  0  0  0  0  0  0  0  0  0
   -0.9394    0.9140    1.5096 H   0  0  0  0  0  0  0  0  0  0  0  0
   -0.3655   -0.2067   -0.0551 C   0  0  0  0  0  0  0  0  0  0  0  0
   -0.4372   -1.0629    0.6849 H   0  0  0  0  0  0  0  0  0  0  0  0
   -0.5734   -0.5074   -1.0988 H   0  0  0  0  0  0  0  0  0  0  0  0
    1.8302   -0.0360   -0.0230 Br  0  0  0  0  0  0  0  0  0  0  0  0
   -2.5964    1.0615   -0.1875 C   0  0  0  0  0  0  0  0  0  0  0  0
   -2.7742    0.7825   -1.2502 H   0  0  0  0  0  0  0  0  0  0  0  0
   -3.1922    2.0150   -0.0096 H   0  0  0  0  0  0  0  0  0  0  0  0
   -3.2759   -0.3144    0.2511 C   0  0  0  0  0  0  0  0  0  0  0  0
   -4.3645    0.0309   -0.1062 H   0  0  0  0  0  0  0  0  0  0  0  0
   -3.2384   -0.3859    1.3184 H   0  0  0  0  0  0  0  0  0  0  0  0
   -2.5213   -1.2817   -0.2640 O   0  0  0  0  0  1  0  0  0  0  0  0
  1  3  1  0  0  0  0
  2  1  1  0  0  0  0
  4  7  1  0  0  0  0
  4  1  1  0  0  0  0
  4  5  1  0  0  0  0
  6  4  1  0  0  0  0
  8 10  1  0  0  0  0
  8 11  1  0  0  0  0
  8  1  1  0  0  0  0
  9  8  1  0  0  0  0
 11 13  1  0  0  0  0
 12 11  1  0  0  0  0
 14 11  1  0  0  0  0
M  END
$$$$
Title Card Required
 OpenBabel06272217483D

 14 13  0  0  0  0  0  0  0  0999 V2000
   -1.0985    1.1063    0.3986 C   0  0  0  0  0  0  0  0  0  0  0  0
   -0.4131    1.9260    0.0406 H   0  0  0  0  0  0  0  0  0  0  0  0
   -0.9141    0.8707    1.5245 H   0  0  0  0  0  0  0  0  0  0  0  0
   -0.3718   -0.2151   -0.0561 C   0  0  0  0  0  0  0  0  0  0  0  0
   -0.5020   -1.0785    0.6741 H   0  0  0  0  0  0  0  0  0  0  0  0
   -0.5873   -0.5228   -1.1478 H   0  0  0  0  0  0  0  0  0  0  0  0
    1.8331   -0.0356   -0.0223 Br  0  0  0  0  0  0  0  0  0  0  0  0
   -2.6005    1.0572   -0.1816 C   0  0  0  0  0  0  0  0  0  0  0  0
   -2.8431    0.8707   -1.3396 H   0  0  0  0  0  0  0  0  0  0  0  0
   -3.1859    2.0357   -0.0458 H   0  0  0  0  0  0  0  0  0  0  0  0
   -3.2791   -0.3066    0.2599 C   0  0  0  0  0  0  0  0  0  0  0  0
   -4.2859    0.0157   -0.0834 H   0  0  0  0  0  0  0  0  0  0  0  0
   -3.3305   -0.4309    1.3632 H   0  0  0  0  0  0  0  0  0  0  0  0
   -2.5181   -1.2885   -0.2679 O   0  0  0  0  0  1  0  0  0  0  0  0
  1  3  1  0  0  0  0
  2  1  1  0  0  0  0
  4  7  1  0  0  0  0
  4  1  1  0  0  0  0
  4  5  1  0  0  0  0
  6  4  1  0  0  0  0
  8 10  1  0  0  0  0
  8 11  1  0  0  0  0
  8  1  1  0  0  0  0
  9  8  1  0  0  0  0
 11 13  1  0  0  0  0
 12 11  1  0  0  0  0
 14 11  1  0  0  0  0
M  END
$$$$
Title Card Required
 OpenBabel06272217483D

 14 13  0  0  0  0  0  0  0  0999 V2000
   -1.0937    1.1067    0.3940 C   0  0  0  0  0  0  0  0  0  0  0  0
   -0.4392    2.0392    0.0331 H   0  0  0  0  0  0  0  0  0  0  0  0
   -0.9192    0.8632    1.5079 H   0  0  0  0  0  0  0  0  0  0  0  0
   -0.3810   -0.2270   -0.0599 C   0  0  0  0  0  0  0  0  0  0  0  0
   -0.5658   -1.0687    0.6301 H   0  0  0  0  0  0  0  0  0  0  0  0
   -0.5851   -0.5298   -1.1539 H   0  0  0  0  0  0  0  0  0  0  0  0
    1.8360   -0.0350   -0.0215 Br  0  0  0  0  0  0  0  0  0  0  0  0
   -2.6056    1.0530   -0.1760 C   0  0  0  0  0  0  0  0  0  0  0  0
   -2.8708    0.9835   -1.3885 H   0  0  0  0  0  0  0  0  0  0  0  0
   -3.1620    2.0355   -0.0700 H   0  0  0  0  0  0  0  0  0  0  0  0
   -3.2777   -0.2969    0.2695 C   0  0  0  0  0  0  0  0  0  0  0  0
   -4.2292   -0.0312   -0.0679 H   0  0  0  0  0  0  0  0  0  0  0  0
   -3.4422   -0.4655    1.4258 H   0  0  0  0  0  0  0  0  0  0  0  0
   -2.5170   -1.2956   -0.2725 O   0  0  0  0  0  1  0  0  0  0  0  0
  1  3  1  0  0  0  0
  2  1  1  0  0  0  0
  4  7  1  0  0  0  0
  4  1  1  0  0  0  0
  4  5  1  0  0  0  0
  6  4  1  0  0  0  0
  8 10  1  0  0  0  0
  8 11  1  0  0  0  0
  8  1  1  0  0  0  0
  9  8  1  0  0  0  0
 11 13  1  0  0  0  0
 12 11  1  0  0  0  0
 14 11  1  0  0  0  0
M  END
$$$$
Title Card Required
 OpenBabel06272217483D

 14 13  0  0  0  0  0  0  0  0999 V2000
   -1.0850    1.1050    0.3860 C   0  0  0  0  0  0  0  0  0  0  0  0
   -0.5091    2.1033    0.0500 H   0  0  0  0  0  0  0  0  0  0  0  0
   -0.9597    0.9013    1.4634 H   0  0  0  0  0  0  0  0  0  0  0  0
   -0.3923   -0.2392   -0.0687 C   0  0  0  0  0  0  0  0  0  0  0  0
   -0.6191   -1.0502    0.5721 H   0  0  0  0  0  0  0  0  0  0  0  0
   -0.5640   -0.5252   -1.1116 H   0  0  0  0  0  0  0  0  0  0  0  0
    1.8387   -0.0344   -0.0207 Br  0  0  0  0  0  0  0  0  0  0  0  0
   -2.6108    1.0502   -0.1727 C   0  0  0  0  0  0  0  0  0  0  0  0
   -2.8410    1.0958   -1.3644 H   0  0  0  0  0  0  0  0  0  0  0  0
   -3.1266    2.0186   -0.0646 H   0  0  0  0  0  0  0  0  0  0  0  0
   -3.2680   -0.2887    0.2821 C   0  0  0  0  0  0  0  0  0  0  0  0
   -4.2552   -0.0969   -0.0845 H   0  0  0  0  0  0  0  0  0  0  0  0
   -3.5472   -0.4761    1.4629 H   0  0  0  0  0  0  0  0  0  0  0  0
   -2.5186   -1.3013   -0.2764 O   0  0  0  0  0  1  0  0  0  0  0  0
  1  3  1  0  0  0  0
  2  1  1  0  0  0  0
  4  7  1  0  0  0  0
  4  1  1  0  0  0  0
  4  5  1  0  0  0  0
  6  4  1  0  0  0  0
  8 10  1  0  0  0  0
  8 11  1  0  0  0  0
  8  1  1  0  0  0  0
  9  8  1  0  0  0  0
 11 13  1  0  0  0  0
 12 11  1  0  0  0  0
 14 11  1  0  0  0  0
M  END
$$$$
Title Card Required
 OpenBabel06272217483D

 14 13  0  0  0  0  0  0  0  0999 V2000
   -1.0756    1.1027    0.3742 C   0  0  0  0  0  0  0  0  0  0  0  0
   -0.5990    2.1051    0.0822 H   0  0  0  0  0  0  0  0  0  0  0  0
   -1.0187    0.9655    1.4279 H   0  0  0  0  0  0  0  0  0  0  0  0
   -0.4028   -0.2463   -0.0797 C   0  0  0  0  0  0  0  0  0  0  0  0
   -0.6587   -1.0539    0.5373 H   0  0  0  0  0  0  0  0  0  0  0  0
   -0.5351   -0.5188   -1.0703 H   0  0  0  0  0  0  0  0  0  0  0  0
    1.8409   -0.0338   -0.0199 Br  0  0  0  0  0  0  0  0  0  0  0  0
   -2.6140    1.0487   -0.1709 C   0  0  0  0  0  0  0  0  0  0  0  0
   -2.7707    1.1747   -1.2919 H   0  0  0  0  0  0  0  0  0  0  0  0
   -3.0986    2.0065   -0.0242 H   0  0  0  0  0  0  0  0  0  0  0  0
   -3.2556   -0.2843    0.2944 C   0  0  0  0  0  0  0  0  0  0  0  0
   -4.3280   -0.1672   -0.1212 H   0  0  0  0  0  0  0  0  0  0  0  0
   -3.6158   -0.4608    1.4570 H   0  0  0  0  0  0  0  0  0  0  0  0
   -2.5224   -1.3045   -0.2783 O   0  0  0  0  0  1  0  0  0  0  0  0
  1  3  1  0  0  0  0
  2  1  1  0  0  0  0
  4  7  1  0  0  0  0
  4  1  1  0  0  0  0
  4  5  1  0  0  0  0
  6  4  1  0  0  0  0
  8 10  1  0  0  0  0
  8 11  1  0  0  0  0
  8  1  1  0  0  0  0
  9  8  1  0  0  0  0
 11 13  1  0  0  0  0
 12 11  1  0  0  0  0
 14 11  1  0  0  0  0
M  END
$$$$
Title Card Required
 OpenBabel06272217483D

 14 13  0  0  0  0  0  0  0  0999 V2000
   -1.0679    1.0991    0.3582 C   0  0  0  0  0  0  0  0  0  0  0  0
   -0.6876    2.0744    0.1152 H   0  0  0  0  0  0  0  0  0  0  0  0
   -1.0865    1.0403    1.4228 H   0  0  0  0  0  0  0  0  0  0  0  0
   -0.4120   -0.2475   -0.0893 C   0  0  0  0  0  0  0  0  0  0  0  0
   -0.6902   -1.0821    0.5281 H   0  0  0  0  0  0  0  0  0  0  0  0
   -0.5059   -0.5204   -1.0745 H   0  0  0  0  0  0  0  0  0  0  0  0
    1.8426   -0.0333   -0.0191 Br  0  0  0  0  0  0  0  0  0  0  0  0
   -2.6146    1.0478   -0.1681 C   0  0  0  0  0  0  0  0  0  0  0  0
   -2.6789    1.2227   -1.2118 H   0  0  0  0  0  0  0  0  0  0  0  0
   -3.0837    2.0087    0.0495 H   0  0  0  0  0  0  0  0  0  0  0  0
   -3.2456   -0.2829    0.3041 C   0  0  0  0  0  0  0  0  0  0  0  0
   -4.3919   -0.2404   -0.1578 H   0  0  0  0  0  0  0  0  0  0  0  0
   -3.6496   -0.4257    1.4182 H   0  0  0  0  0  0  0  0  0  0  0  0
   -2.5278   -1.3054   -0.2783 O   0  0  0  0  0  1  0  0  0  0  0  0
  1  3  1  0  0  0  0
  2  1  1  0  0  0  0
  4  7  1  0  0  0  0
  4  1  1  0  0  0  0
  4  5  1  0  0  0  0
  6  4  1  0  0  0  0
  8 10  1  0  0  0  0
  8 11  1  0  0  0  0
  8  1  1  0  0  0  0
  9  8  1  0  0  0  0
 11 13  1  0  0  0  0
 12 11  1  0  0  0  0
 14 11  1  0  0  0  0
M  END
$$$$
Title Card Required
 OpenBabel06272217483D

 14 13  0  0  0  0  0  0  0  0999 V2000
   -1.0640    1.0912    0.3396 C   0  0  0  0  0  0  0  0  0  0  0  0
   -0.7555    2.0503    0.1329 H   0  0  0  0  0  0  0  0  0  0  0  0
   -1.1590    1.1186    1.4432 H   0  0  0  0  0  0  0  0  0  0  0  0
   -0.4205   -0.2446   -0.0958 C   0  0  0  0  0  0  0  0  0  0  0  0
   -0.7117   -1.1177    0.5306 H   0  0  0  0  0  0  0  0  0  0  0  0
   -0.4765   -0.5305   -1.1306 H   0  0  0  0  0  0  0  0  0  0  0  0
    1.8442   -0.0327   -0.0182 Br  0  0  0  0  0  0  0  0  0  0  0  0
   -2.6123    1.0474   -0.1603 C   0  0  0  0  0  0  0  0  0  0  0  0
   -2.5768    1.2475   -1.1693 H   0  0  0  0  0  0  0  0  0  0  0  0
   -3.0791    2.0185    0.1539 H   0  0  0  0  0  0  0  0  0  0  0  0
   -3.2397   -0.2846    0.3093 C   0  0  0  0  0  0  0  0  0  0  0  0
   -4.4236   -0.3113   -0.1853 H   0  0  0  0  0  0  0  0  0  0  0  0
   -3.6502   -0.3745    1.3585 H   0  0  0  0  0  0  0  0  0  0  0  0
   -2.5345   -1.3044   -0.2762 O   0  0  0  0  0  1  0  0  0  0  0  0
  1  3  1  0  0  0  0
  2  1  1  0  0  0  0
  4  7  1  0  0  0  0
  4  1  1  0  0  0  0
  4  5  1  0  0  0  0
  6  4  1  0  0  0  0
  8 10  1  0  0  0  0
  8 11  1  0  0  0  0
  8  1  1  0  0  0  0
  9  8  1  0  0  0  0
 11 13  1  0  0  0  0
 12 11  1  0  0  0  0
 14 11  1  0  0  0  0
M  END
$$$$
Title Card Required
 OpenBabel06272217483D

 14 13  0  0  0  0  0  0  0  0999 V2000
   -1.0660    1.0769    0.3222 C   0  0  0  0  0  0  0  0  0  0  0  0
   -0.7845    2.0686    0.1200 H   0  0  0  0  0  0  0  0  0  0  0  0
   -1.2272    1.1915    1.4633 H   0  0  0  0  0  0  0  0  0  0  0  0
   -0.4288   -0.2402   -0.1011 C   0  0  0  0  0  0  0  0  0  0  0  0
   -0.7171   -1.1384    0.5277 H   0  0  0  0  0  0  0  0  0  0  0  0
   -0.4457   -0.5375   -1.2004 H   0  0  0  0  0  0  0  0  0  0  0  0
    1.8456   -0.0322   -0.0173 Br  0  0  0  0  0  0  0  0  0  0  0  0
   -2.6077    1.0485   -0.1449 C   0  0  0  0  0  0  0  0  0  0  0  0
   -2.4747    1.2565   -1.1912 H   0  0  0  0  0  0  0  0  0  0  0  0
   -3.0762    2.0178    0.2774 H   0  0  0  0  0  0  0  0  0  0  0  0
   -3.2385   -0.2894    0.3069 C   0  0  0  0  0  0  0  0  0  0  0  0
   -4.4147   -0.3714   -0.1991 H   0  0  0  0  0  0  0  0  0  0  0  0
   -3.6225   -0.3121    1.3040 H   0  0  0  0  0  0  0  0  0  0  0  0
   -2.5422   -1.3016   -0.2715 O   0  0  0  0  0  1  0  0  0  0  0  0
  1  3  1  0  0  0  0
  2  1  1  0  0  0  0
  4  7  1  0  0  0  0
  4  1  1  0  0  0  0
  4  5  1  0  0  0  0
  6  4  1  0  0  0  0
  8 10  1  0  0  0  0
  8 11  1  0  0  0  0
  8  1  1  0  0  0  0
  9  8  1  0  0  0  0
 11 13  1  0  0  0  0
 12 11  1  0  0  0  0
 14 11  1  0  0  0  0
M  END
$$$$
Title Card Required
 OpenBabel06272217483D

 14 13  0  0  0  0  0  0  0  0999 V2000
   -1.0751    1.0582    0.3096 C   0  0  0  0  0  0  0  0  0  0  0  0
   -0.7745    2.1142    0.0739 H   0  0  0  0  0  0  0  0  0  0  0  0
   -1.2770    1.2465    1.4564 H   0  0  0  0  0  0  0  0  0  0  0  0
   -0.4369   -0.2367   -0.1082 C   0  0  0  0  0  0  0  0  0  0  0  0
   -0.7023   -1.1309    0.5095 H   0  0  0  0  0  0  0  0  0  0  0  0
   -0.4155   -0.5277   -1.2365 H   0  0  0  0  0  0  0  0  0  0  0  0
    1.8468   -0.0316   -0.0163 Br  0  0  0  0  0  0  0  0  0  0  0  0
   -2.6011    1.0524   -0.1240 C   0  0  0  0  0  0  0  0  0  0  0  0
   -2.3887    1.2502   -1.2441 H   0  0  0  0  0  0  0  0  0  0  0  0
   -3.0655    1.9885    0.4001 H   0  0  0  0  0  0  0  0  0  0  0  0
   -3.2416   -0.2968    0.2926 C   0  0  0  0  0  0  0  0  0  0  0  0
   -4.3639   -0.4114   -0.1966 H   0  0  0  0  0  0  0  0  0  0  0  0
   -3.5775   -0.2447    1.2972 H   0  0  0  0  0  0  0  0  0  0  0  0
   -2.5504   -1.2975   -0.2640 O   0  0  0  0  0  1  0  0  0  0  0  0
  1  3  1  0  0  0  0
  2  1  1  0  0  0  0
  4  7  1  0  0  0  0
  4  1  1  0  0  0  0
  4  5  1  0  0  0  0
  6  4  1  0  0  0  0
  8 11  1  0  0  0  0
  8  1  1  0  0  0  0
  8 10  1  0  0  0  0
  9  8  1  0  0  0  0
 11 13  1  0  0  0  0
 12 11  1  0  0  0  0
 14 11  1  0  0  0  0
M  END
$$$$
Title Card Required
 OpenBabel06272217483D

 14 13  0  0  0  0  0  0  0  0999 V2000
   -1.0894    1.0424    0.3033 C   0  0  0  0  0  0  0  0  0  0  0  0
   -0.7419    2.1311    0.0099 H   0  0  0  0  0  0  0  0  0  0  0  0
   -1.2928    1.2701    1.4162 H   0  0  0  0  0  0  0  0  0  0  0  0
   -0.4436   -0.2351   -0.1184 C   0  0  0  0  0  0  0  0  0  0  0  0
   -0.6703   -1.1027    0.4817 H   0  0  0  0  0  0  0  0  0  0  0  0
   -0.3919   -0.4980   -1.2197 H   0  0  0  0  0  0  0  0  0  0  0  0
    1.8478   -0.0309   -0.0152 Br  0  0  0  0  0  0  0  0  0  0  0  0
   -2.5931    1.0593   -0.1040 C   0  0  0  0  0  0  0  0  0  0  0  0
   -2.3444    1.2299   -1.2705 H   0  0  0  0  0  0  0  0  0  0  0  0
   -3.0445    1.9304    0.4952 H   0  0  0  0  0  0  0  0  0  0  0  0
   -3.2484   -0.3050    0.2676 C   0  0  0  0  0  0  0  0  0  0  0  0
   -4.2862   -0.4227   -0.1793 H   0  0  0  0  0  0  0  0  0  0  0  0
   -3.5225   -0.1820    1.3501 H   0  0  0  0  0  0  0  0  0  0  0  0
   -2.5576   -1.2934   -0.2546 O   0  0  0  0  0  1  0  0  0  0  0  0
  1  3  1  0  0  0  0
  2  1  1  0  0  0  0
  4  7  1  0  0  0  0
  4  1  1  0  0  0  0
  4  5  1  0  0  0  0
  6  4  1  0  0  0  0
  8 11  1  0  0  0  0
  8  1  1  0  0  0  0
  8 10  1  0  0  0  0
  9  8  1  0  0  0  0
 11 13  1  0  0  0  0
 12 11  1  0  0  0  0
 14 11  1  0  0  0  0
M  END
$$$$
Title Card Required
 OpenBabel06272217483D

 14 13  0  0  0  0  0  0  0  0999 V2000
   -1.1061    1.0328    0.3015 C   0  0  0  0  0  0  0  0  0  0  0  0
   -0.7039    2.0914   -0.0564 H   0  0  0  0  0  0  0  0  0  0  0  0
   -1.2730    1.2629    1.3617 H   0  0  0  0  0  0  0  0  0  0  0  0
   -0.4482   -0.2334   -0.1310 C   0  0  0  0  0  0  0  0  0  0  0  0
   -0.6294   -1.0792    0.4611 H   0  0  0  0  0  0  0  0  0  0  0  0
   -0.3773   -0.4570   -1.1737 H   0  0  0  0  0  0  0  0  0  0  0  0
    1.8486   -0.0303   -0.0141 Br  0  0  0  0  0  0  0  0  0  0  0  0
   -2.5839    1.0671   -0.0882 C   0  0  0  0  0  0  0  0  0  0  0  0
   -2.3498    1.2041   -1.2510 H   0  0  0  0  0  0  0  0  0  0  0  0
   -3.0196    1.8611    0.5561 H   0  0  0  0  0  0  0  0  0  0  0  0
   -3.2569   -0.3115    0.2390 C   0  0  0  0  0  0  0  0  0  0  0  0
   -4.2201   -0.4082   -0.1592 H   0  0  0  0  0  0  0  0  0  0  0  0
   -3.4561   -0.1317    1.4207 H   0  0  0  0  0  0  0  0  0  0  0  0
   -2.5626   -1.2907   -0.2445 O   0  0  0  0  0  1  0  0  0  0  0  0
  1  3  1  0  0  0  0
  2  1  1  0  0  0  0
  4  7  1  0  0  0  0
  4  1  1  0  0  0  0
  4  5  1  0  0  0  0
  6  4  1  0  0  0  0
  8 11  1  0  0  0  0
  8  1  1  0  0  0  0
  8 10  1  0  0  0  0
  9  8  1  0  0  0  0
 11 13  1  0  0  0  0
 12 11  1  0  0  0  0
 14 11  1  0  0  0  0
M  END
$$$$
Title Card Required
 OpenBabel06272217483D

 14 13  0  0  0  0  0  0  0  0999 V2000
   -1.1236    1.0283    0.3012 C   0  0  0  0  0  0  0  0  0  0  0  0
   -0.6662    1.9952   -0.1202 H   0  0  0  0  0  0  0  0  0  0  0  0
   -1.2207    1.2327    1.3242 H   0  0  0  0  0  0  0  0  0  0  0  0
   -0.4512   -0.2294   -0.1436 C   0  0  0  0  0  0  0  0  0  0  0  0
   -0.5824   -1.0806    0.4609 H   0  0  0  0  0  0  0  0  0  0  0  0
   -0.3690   -0.4150   -1.1439 H   0  0  0  0  0  0  0  0  0  0  0  0
    1.8491   -0.0296   -0.0129 Br  0  0  0  0  0  0  0  0  0  0  0  0
   -2.5738    1.0737   -0.0769 C   0  0  0  0  0  0  0  0  0  0  0  0
   -2.4034    1.1817   -1.1924 H   0  0  0  0  0  0  0  0  0  0  0  0
   -3.0008    1.8003    0.5926 H   0  0  0  0  0  0  0  0  0  0  0  0
   -3.2627   -0.3145    0.2119 C   0  0  0  0  0  0  0  0  0  0  0  0
   -4.2185   -0.3739   -0.1539 H   0  0  0  0  0  0  0  0  0  0  0  0
   -3.3783   -0.0983    1.4745 H   0  0  0  0  0  0  0  0  0  0  0  0
   -2.5654   -1.2900   -0.2340 O   0  0  0  0  0  1  0  0  0  0  0  0
  1  3  1  0  0  0  0
  2  1  1  0  0  0  0
  4  7  1  0  0  0  0
  4  1  1  0  0  0  0
  4  5  1  0  0  0  0
  6  4  1  0  0  0  0
  8 11  1  0  0  0  0
  8  1  1  0  0  0  0
  8 10  1  0  0  0  0
  9  8  1  0  0  0  0
 11 13  1  0  0  0  0
 12 11  1  0  0  0  0
 14 11  1  0  0  0  0
M  END
$$$$
Title Card Required
 OpenBabel06272217483D

 14 13  0  0  0  0  0  0  0  0999 V2000
   -1.1383    1.0266    0.2994 C   0  0  0  0  0  0  0  0  0  0  0  0
   -0.6331    1.8747   -0.1743 H   0  0  0  0  0  0  0  0  0  0  0  0
   -1.1483    1.1942    1.3368 H   0  0  0  0  0  0  0  0  0  0  0  0
   -0.4528   -0.2235   -0.1515 C   0  0  0  0  0  0  0  0  0  0  0  0
   -0.5344   -1.1029    0.4758 H   0  0  0  0  0  0  0  0  0  0  0  0
   -0.3647   -0.3858   -1.1717 H   0  0  0  0  0  0  0  0  0  0  0  0
    1.8495   -0.0290   -0.0118 Br  0  0  0  0  0  0  0  0  0  0  0  0
   -2.5648    1.0766   -0.0701 C   0  0  0  0  0  0  0  0  0  0  0  0
   -2.4896    1.1742   -1.1276 H   0  0  0  0  0  0  0  0  0  0  0  0
   -2.9998    1.7715    0.6139 H   0  0  0  0  0  0  0  0  0  0  0  0
   -3.2631   -0.3130    0.1916 C   0  0  0  0  0  0  0  0  0  0  0  0
   -4.2929   -0.3278   -0.1661 H   0  0  0  0  0  0  0  0  0  0  0  0
   -3.3063   -0.0873    1.4932 H   0  0  0  0  0  0  0  0  0  0  0  0
   -2.5659   -1.2914   -0.2247 O   0  0  0  0  0  1  0  0  0  0  0  0
  1  3  1  0  0  0  0
  2  1  1  0  0  0  0
  4  7  1  0  0  0  0
  4  1  1  0  0  0  0
  4  5  1  0  0  0  0
  6  4  1  0  0  0  0
  8 11  1  0  0  0  0
  8  1  1  0  0  0  0
  8 10  1  0  0  0  0
  9  8  1  0  0  0  0
 11 13  1  0  0  0  0
 12 11  1  0  0  0  0
 14 11  1  0  0  0  0
M  END
$$$$
Title Card Required
 OpenBabel06272217483D

 14 13  0  0  0  0  0  0  0  0999 V2000
   -1.1496    1.0247    0.2967 C   0  0  0  0  0  0  0  0  0  0  0  0
   -0.5977    1.7637   -0.2246 H   0  0  0  0  0  0  0  0  0  0  0  0
   -1.0636    1.1541    1.3861 H   0  0  0  0  0  0  0  0  0  0  0  0
   -0.4536   -0.2182   -0.1554 C   0  0  0  0  0  0  0  0  0  0  0  0
   -0.4852   -1.1249    0.4883 H   0  0  0  0  0  0  0  0  0  0  0  0
   -0.3647   -0.3677   -1.2365 H   0  0  0  0  0  0  0  0  0  0  0  0
    1.8497   -0.0283   -0.0106 Br  0  0  0  0  0  0  0  0  0  0  0  0
   -2.5581    1.0757   -0.0646 C   0  0  0  0  0  0  0  0  0  0  0  0
   -2.5928    1.1871   -1.0939 H   0  0  0  0  0  0  0  0  0  0  0  0
   -3.0169    1.7734    0.6266 H   0  0  0  0  0  0  0  0  0  0  0  0
   -3.2611   -0.3078    0.1773 C   0  0  0  0  0  0  0  0  0  0  0  0
   -4.3894   -0.2738   -0.1782 H   0  0  0  0  0  0  0  0  0  0  0  0
   -3.2480   -0.0965    1.4797 H   0  0  0  0  0  0  0  0  0  0  0  0
   -2.5650   -1.2947   -0.2167 O   0  0  0  0  0  1  0  0  0  0  0  0
  1  3  1  0  0  0  0
  2  1  1  0  0  0  0
  4  7  1  0  0  0  0
  4  1  1  0  0  0  0
  4  5  1  0  0  0  0
  6  4  1  0  0  0  0
  8 11  1  0  0  0  0
  8  1  1  0  0  0  0
  8 10  1  0  0  0  0
  9  8  1  0  0  0  0
 11 13  1  0  0  0  0
 12 11  1  0  0  0  0
 14 11  1  0  0  0  0
M  END
$$$$
Title Card Required
 OpenBabel06272217483D

 14 13  0  0  0  0  0  0  0  0999 V2000
   -1.1578    1.0206    0.2960 C   0  0  0  0  0  0  0  0  0  0  0  0
   -0.5502    1.6799   -0.2808 H   0  0  0  0  0  0  0  0  0  0  0  0
   -0.9683    1.1117    1.4379 H   0  0  0  0  0  0  0  0  0  0  0  0
   -0.4536   -0.2158   -0.1585 C   0  0  0  0  0  0  0  0  0  0  0  0
   -0.4326   -1.1330    0.4857 H   0  0  0  0  0  0  0  0  0  0  0  0
   -0.3722   -0.3541   -1.2985 H   0  0  0  0  0  0  0  0  0  0  0  0
    1.8498   -0.0274   -0.0094 Br  0  0  0  0  0  0  0  0  0  0  0  0
   -2.5548    1.0722   -0.0578 C   0  0  0  0  0  0  0  0  0  0  0  0
   -2.7112    1.2247   -1.1073 H   0  0  0  0  0  0  0  0  0  0  0  0
   -3.0475    1.7958    0.6276 H   0  0  0  0  0  0  0  0  0  0  0  0
   -3.2593   -0.2991    0.1676 C   0  0  0  0  0  0  0  0  0  0  0  0
   -4.4676   -0.2122   -0.1783 H   0  0  0  0  0  0  0  0  0  0  0  0
   -3.2056   -0.1258    1.4347 H   0  0  0  0  0  0  0  0  0  0  0  0
   -2.5631   -1.2997   -0.2097 O   0  0  0  0  0  1  0  0  0  0  0  0
  1  3  1  0  0  0  0
  2  1  1  0  0  0  0
  4  7  1  0  0  0  0
  4  1  1  0  0  0  0
  4  5  1  0  0  0  0
  6  4  1  0  0  0  0
  8 11  1  0  0  0  0
  8  1  1  0  0  0  0
  8 10  1  0  0  0  0
  9  8  1  0  0  0  0
 11 13  1  0  0  0  0
 12 11  1  0  0  0  0
 14 11  1  0  0  0  0
M  END
$$$$
Title Card Required
 OpenBabel06272217483D

 14 13  0  0  0  0  0  0  0  0999 V2000
   -1.1604    1.0138    0.2994 C   0  0  0  0  0  0  0  0  0  0  0  0
   -0.4922    1.6320   -0.3395 H   0  0  0  0  0  0  0  0  0  0  0  0
   -0.8720    1.0697    1.4559 H   0  0  0  0  0  0  0  0  0  0  0  0
   -0.4527   -0.2181   -0.1640 C   0  0  0  0  0  0  0  0  0  0  0  0
   -0.3784   -1.1214    0.4613 H   0  0  0  0  0  0  0  0  0  0  0  0
   -0.3908   -0.3425   -1.3216 H   0  0  0  0  0  0  0  0  0  0  0  0
    1.8497   -0.0264   -0.0081 Br  0  0  0  0  0  0  0  0  0  0  0  0
   -2.5577    1.0679   -0.0509 C   0  0  0  0  0  0  0  0  0  0  0  0
   -2.8361    1.2873   -1.1462 H   0  0  0  0  0  0  0  0  0  0  0  0
   -3.0837    1.8265    0.6091 H   0  0  0  0  0  0  0  0  0  0  0  0
   -3.2588   -0.2869    0.1636 C   0  0  0  0  0  0  0  0  0  0  0  0
   -4.5005   -0.1462   -0.1615 H   0  0  0  0  0  0  0  0  0  0  0  0
   -3.1876   -0.1773    1.3569 H   0  0  0  0  0  0  0  0  0  0  0  0
   -2.5607   -1.3064   -0.2039 O   0  0  0  0  0  1  0  0  0  0  0  0
  1  3  1  0  0  0  0
  2  1  1  0  0  0  0
  4  7  1  0  0  0  0
  4  1  1  0  0  0  0
  4  5  1  0  0  0  0
  6  4  1  0  0  0  0
  8 11  1  0  0  0  0
  8  1  1  0  0  0  0
  8 10  1  0  0  0  0
  9  8  1  0  0  0  0
 11 13  1  0  0  0  0
 12 11  1  0  0  0  0
 14 11  1  0  0  0  0
M  END
$$$$
Title Card Required
 OpenBabel06272217483D

 14 13  0  0  0  0  0  0  0  0999 V2000
   -1.1528    1.0052    0.3060 C   0  0  0  0  0  0  0  0  0  0  0  0
   -0.4463    1.6168   -0.3771 H   0  0  0  0  0  0  0  0  0  0  0  0
   -0.7933    1.0367    1.4173 H   0  0  0  0  0  0  0  0  0  0  0  0
   -0.4513   -0.2259   -0.1740 C   0  0  0  0  0  0  0  0  0  0  0  0
   -0.3283   -1.0999    0.4203 H   0  0  0  0  0  0  0  0  0  0  0  0
   -0.4211   -0.3352   -1.2885 H   0  0  0  0  0  0  0  0  0  0  0  0
    1.8496   -0.0251   -0.0066 Br  0  0  0  0  0  0  0  0  0  0  0  0
   -2.5702    1.0657   -0.0477 C   0  0  0  0  0  0  0  0  0  0  0  0
   -2.9391    1.3638   -1.1616 H   0  0  0  0  0  0  0  0  0  0  0  0
   -3.1137    1.8509    0.5674 H   0  0  0  0  0  0  0  0  0  0  0  0
   -3.2599   -0.2720    0.1663 C   0  0  0  0  0  0  0  0  0  0  0  0
   -4.4697   -0.0846   -0.1285 H   0  0  0  0  0  0  0  0  0  0  0  0
   -3.2053   -0.2463    1.2637 H   0  0  0  0  0  0  0  0  0  0  0  0
   -2.5579   -1.3146   -0.2004 O   0  0  0  0  0  1  0  0  0  0  0  0
  1  3  1  0  0  0  0
  2  1  1  0  0  0  0
  4  7  1  0  0  0  0
  4  1  1  0  0  0  0
  4  5  1  0  0  0  0
  6  4  1  0  0  0  0
  8 11  1  0  0  0  0
  8  1  1  0  0  0  0
  8 10  1  0  0  0  0
  9  8  1  0  0  0  0
 11 13  1  0  0  0  0
 12 11  1  0  0  0  0
 14 11  1  0  0  0  0
M  END
$$$$
Title Card Required
 OpenBabel06272217483D

 14 13  0  0  0  0  0  0  0  0999 V2000
   -1.1343    0.9964    0.3121 C   0  0  0  0  0  0  0  0  0  0  0  0
   -0.4364    1.6237   -0.3723 H   0  0  0  0  0  0  0  0  0  0  0  0
   -0.7473    1.0230    1.3388 H   0  0  0  0  0  0  0  0  0  0  0  0
   -0.4505   -0.2368   -0.1875 C   0  0  0  0  0  0  0  0  0  0  0  0
   -0.2878   -1.0960    0.3844 H   0  0  0  0  0  0  0  0  0  0  0  0
   -0.4572   -0.3379   -1.2296 H   0  0  0  0  0  0  0  0  0  0  0  0
    1.8493   -0.0237   -0.0051 Br  0  0  0  0  0  0  0  0  0  0  0  0
   -2.5915    1.0682   -0.0505 C   0  0  0  0  0  0  0  0  0  0  0  0
   -2.9900    1.4333   -1.1280 H   0  0  0  0  0  0  0  0  0  0  0  0
   -3.1305    1.8622    0.5155 H   0  0  0  0  0  0  0  0  0  0  0  0
   -3.2626   -0.2569    0.1731 C   0  0  0  0  0  0  0  0  0  0  0  0
   -4.3839   -0.0396   -0.0900 H   0  0  0  0  0  0  0  0  0  0  0  0
   -3.2587   -0.3173    1.2116 H   0  0  0  0  0  0  0  0  0  0  0  0
   -2.5549   -1.3233   -0.1999 O   0  0  0  0  0  1  0  0  0  0  0  0
  1  3  1  0  0  0  0
  2  1  1  0  0  0  0
  4  7  1  0  0  0  0
  4  1  1  0  0  0  0
  4  5  1  0  0  0  0
  6  4  1  0  0  0  0
  8 11  1  0  0  0  0
  8  1  1  0  0  0  0
  8 10  1  0  0  0  0
  9  8  1  0  0  0  0
 11 13  1  0  0  0  0
 12 11  1  0  0  0  0
 14 11  1  0  0  0  0
M  END
$$$$
Title Card Required
 OpenBabel06272217483D

 14 13  0  0  0  0  0  0  0  0999 V2000
   -1.1089    0.9882    0.3130 C   0  0  0  0  0  0  0  0  0  0  0  0
   -0.4622    1.6456   -0.3287 H   0  0  0  0  0  0  0  0  0  0  0  0
   -0.7258    1.0317    1.2735 H   0  0  0  0  0  0  0  0  0  0  0  0
   -0.4514   -0.2487   -0.1999 C   0  0  0  0  0  0  0  0  0  0  0  0
   -0.2578   -1.1230    0.3669 H   0  0  0  0  0  0  0  0  0  0  0  0
   -0.4940   -0.3556   -1.2103 H   0  0  0  0  0  0  0  0  0  0  0  0
    1.8491   -0.0221   -0.0037 Br  0  0  0  0  0  0  0  0  0  0  0  0
   -2.6170    1.0751   -0.0574 C   0  0  0  0  0  0  0  0  0  0  0  0
   -2.9849    1.4831   -1.0605 H   0  0  0  0  0  0  0  0  0  0  0  0
   -3.1389    1.8682    0.4745 H   0  0  0  0  0  0  0  0  0  0  0  0
   -3.2651   -0.2435    0.1804 C   0  0  0  0  0  0  0  0  0  0  0  0
   -4.2842   -0.0152   -0.0632 H   0  0  0  0  0  0  0  0  0  0  0  0
   -3.3362   -0.3792    1.2425 H   0  0  0  0  0  0  0  0  0  0  0  0
   -2.5517   -1.3315   -0.2026 O   0  0  0  0  0  1  0  0  0  0  0  0
  1  3  1  0  0  0  0
  2  1  1  0  0  0  0
  4  7  1  0  0  0  0
  4  1  1  0  0  0  0
  4  5  1  0  0  0  0
  6  4  1  0  0  0  0
  8 11  1  0  0  0  0
  8  1  1  0  0  0  0
  8 10  1  0  0  0  0
  9  8  1  0  0  0  0
 11 13  1  0  0  0  0
 12 11  1  0  0  0  0
 14 11  1  0  0  0  0
M  END
$$$$
Title Card Required
 OpenBabel06272217483D

 14 13  0  0  0  0  0  0  0  0999 V2000
   -1.0821    0.9805    0.3058 C   0  0  0  0  0  0  0  0  0  0  0  0
   -0.5070    1.6853   -0.2665 H   0  0  0  0  0  0  0  0  0  0  0  0
   -0.7114    1.0606    1.2731 H   0  0  0  0  0  0  0  0  0  0  0  0
   -0.4537   -0.2620   -0.2081 C   0  0  0  0  0  0  0  0  0  0  0  0
   -0.2414   -1.1658    0.3608 H   0  0  0  0  0  0  0  0  0  0  0  0
   -0.5302   -0.3889   -1.2601 H   0  0  0  0  0  0  0  0  0  0  0  0
    1.8490   -0.0204   -0.0024 Br  0  0  0  0  0  0  0  0  0  0  0  0
   -2.6415    1.0846   -0.0650 C   0  0  0  0  0  0  0  0  0  0  0  0
   -2.9369    1.5126   -0.9959 H   0  0  0  0  0  0  0  0  0  0  0  0
   -3.1469    1.8812    0.4630 H   0  0  0  0  0  0  0  0  0  0  0  0
   -3.2640   -0.2342    0.1903 C   0  0  0  0  0  0  0  0  0  0  0  0
   -4.2330   -0.0064   -0.0684 H   0  0  0  0  0  0  0  0  0  0  0  0
   -3.4247   -0.4232    1.3235 H   0  0  0  0  0  0  0  0  0  0  0  0
   -2.5486   -1.3382   -0.2077 O   0  0  0  0  0  1  0  0  0  0  0  0
  1  3  1  0  0  0  0
  2  1  1  0  0  0  0
  4  7  1  0  0  0  0
  4  1  1  0  0  0  0
  4  5  1  0  0  0  0
  6  4  1  0  0  0  0
  8 11  1  0  0  0  0
  8  1  1  0  0  0  0
  8 10  1  0  0  0  0
  9  8  1  0  0  0  0
 11 13  1  0  0  0  0
 12 11  1  0  0  0  0
 14 11  1  0  0  0  0
M  END
$$$$
Title Card Required
 OpenBabel06272217483D

 14 13  0  0  0  0  0  0  0  0999 V2000
   -1.0581    0.9727    0.2932 C   0  0  0  0  0  0  0  0  0  0  0  0
   -0.5479    1.7512   -0.2122 H   0  0  0  0  0  0  0  0  0  0  0  0
   -0.7048    1.1014    1.3302 H   0  0  0  0  0  0  0  0  0  0  0  0
   -0.4569   -0.2783   -0.2149 C   0  0  0  0  0  0  0  0  0  0  0  0
   -0.2433   -1.2011    0.3542 H   0  0  0  0  0  0  0  0  0  0  0  0
   -0.5621   -0.4299   -1.3321 H   0  0  0  0  0  0  0  0  0  0  0  0
    1.8489   -0.0186   -0.0012 Br  0  0  0  0  0  0  0  0  0  0  0  0
   -2.6606    1.0948   -0.0687 C   0  0  0  0  0  0  0  0  0  0  0  0
   -2.8692    1.5334   -0.9817 H   0  0  0  0  0  0  0  0  0  0  0  0
   -3.1565    1.9034    0.4866 H   0  0  0  0  0  0  0  0  0  0  0  0
   -3.2579   -0.2313    0.2058 C   0  0  0  0  0  0  0  0  0  0  0  0
   -4.2630   -0.0094   -0.1133 H   0  0  0  0  0  0  0  0  0  0  0  0
   -3.5085   -0.4404    1.3971 H   0  0  0  0  0  0  0  0  0  0  0  0
   -2.5462   -1.3422   -0.2143 O   0  0  0  0  0  1  0  0  0  0  0  0
  1  3  1  0  0  0  0
  2  1  1  0  0  0  0
  4  7  1  0  0  0  0
  4  1  1  0  0  0  0
  4  5  1  0  0  0  0
  6  4  1  0  0  0  0
  8 11  1  0  0  0  0
  8  1  1  0  0  0  0
  8 10  1  0  0  0  0
  9  8  1  0  0  0  0
 11 13  1  0  0  0  0
 12 11  1  0  0  0  0
 14 11  1  0  0  0  0
M  END
$$$$
Title Card Required
 OpenBabel06272217483D

 14 13  0  0  0  0  0  0  0  0999 V2000
   -1.0375    0.9657    0.2809 C   0  0  0  0  0  0  0  0  0  0  0  0
   -0.5747    1.8400   -0.1768 H   0  0  0  0  0  0  0  0  0  0  0  0
   -0.7175    1.1407    1.3930 H   0  0  0  0  0  0  0  0  0  0  0  0
   -0.4604   -0.2979   -0.2240 C   0  0  0  0  0  0  0  0  0  0  0  0
   -0.2639   -1.2188    0.3422 H   0  0  0  0  0  0  0  0  0  0  0  0
   -0.5854   -0.4697   -1.3739 H   0  0  0  0  0  0  0  0  0  0  0  0
    1.8488   -0.0167   -0.0001 Br  0  0  0  0  0  0  0  0  0  0  0  0
   -2.6732    1.1048   -0.0657 C   0  0  0  0  0  0  0  0  0  0  0  0
   -2.7972    1.5528   -1.0334 H   0  0  0  0  0  0  0  0  0  0  0  0
   -3.1619    1.9246    0.5337 H   0  0  0  0  0  0  0  0  0  0  0  0
   -3.2510   -0.2348    0.2256 C   0  0  0  0  0  0  0  0  0  0  0  0
   -4.3325   -0.0293   -0.1812 H   0  0  0  0  0  0  0  0  0  0  0  0
   -3.5767   -0.4289    1.4336 H   0  0  0  0  0  0  0  0  0  0  0  0
   -2.5449   -1.3427   -0.2213 O   0  0  0  0  0  1  0  0  0  0  0  0
  1  3  1  0  0  0  0
  2  1  1  0  0  0  0
  4  7  1  0  0  0  0
  4  1  1  0  0  0  0
  4  5  1  0  0  0  0
  6  4  1  0  0  0  0
  8 11  1  0  0  0  0
  8  1  1  0  0  0  0
  8 10  1  0  0  0  0
  9  8  1  0  0  0  0
 11 13  1  0  0  0  0
 12 11  1  0  0  0  0
 14 11  1  0  0  0  0
M  END
$$$$
Title Card Required
 OpenBabel06272217483D

 14 13  0  0  0  0  0  0  0  0999 V2000
   -1.0190    0.9612    0.2715 C   0  0  0  0  0  0  0  0  0  0  0  0
   -0.5939    1.9304   -0.1530 H   0  0  0  0  0  0  0  0  0  0  0  0
   -0.7548    1.1676    1.4244 H   0  0  0  0  0  0  0  0  0  0  0  0
   -0.4644   -0.3208   -0.2377 C   0  0  0  0  0  0  0  0  0  0  0  0
   -0.3014   -1.2229    0.3282 H   0  0  0  0  0  0  0  0  0  0  0  0
   -0.5983   -0.5050   -1.3683 H   0  0  0  0  0  0  0  0  0  0  0  0
    1.8488   -0.0147    0.0010 Br  0  0  0  0  0  0  0  0  0  0  0  0
   -2.6802    1.1164   -0.0575 C   0  0  0  0  0  0  0  0  0  0  0  0
   -2.7216    1.5597   -1.1173 H   0  0  0  0  0  0  0  0  0  0  0  0
   -3.1558    1.9332    0.5880 H   0  0  0  0  0  0  0  0  0  0  0  0
   -3.2475   -0.2445    0.2478 C   0  0  0  0  0  0  0  0  0  0  0  0
   -4.3914   -0.0708   -0.2513 H   0  0  0  0  0  0  0  0  0  0  0  0
   -3.6245   -0.3914    1.4248 H   0  0  0  0  0  0  0  0  0  0  0  0
   -2.5446   -1.3391   -0.2281 O   0  0  0  0  0  1  0  0  0  0  0  0
  1  3  1  0  0  0  0
  2  1  1  0  0  0  0
  4  7  1  0  0  0  0
  4  1  1  0  0  0  0
  4  5  1  0  0  0  0
  6  4  1  0  0  0  0
  8 11  1  0  0  0  0
  8  1  1  0  0  0  0
  8 10  1  0  0  0  0
  9  8  1  0  0  0  0
 11 13  1  0  0  0  0
 12 11  1  0  0  0  0
 14 11  1  0  0  0  0
M  END
$$$$
Title Card Required
 OpenBabel06272217483D

 14 13  0  0  0  0  0  0  0  0999 V2000
   -1.0025    0.9620    0.2656 C   0  0  0  0  0  0  0  0  0  0  0  0
   -0.6128    1.9910   -0.1325 H   0  0  0  0  0  0  0  0  0  0  0  0
   -0.8136    1.1728    1.4079 H   0  0  0  0  0  0  0  0  0  0  0  0
   -0.4690   -0.3451   -0.2558 C   0  0  0  0  0  0  0  0  0  0  0  0
   -0.3517   -1.2254    0.3216 H   0  0  0  0  0  0  0  0  0  0  0  0
   -0.6001   -0.5353   -1.3227 H   0  0  0  0  0  0  0  0  0  0  0  0
    1.8487   -0.0126    0.0020 Br  0  0  0  0  0  0  0  0  0  0  0  0
   -2.6816    1.1306   -0.0469 C   0  0  0  0  0  0  0  0  0  0  0  0
   -2.6481    1.5379   -1.1823 H   0  0  0  0  0  0  0  0  0  0  0  0
   -3.1334    1.9231    0.6347 H   0  0  0  0  0  0  0  0  0  0  0  0
   -3.2498   -0.2599    0.2696 C   0  0  0  0  0  0  0  0  0  0  0  0
   -4.4117   -0.1317   -0.3071 H   0  0  0  0  0  0  0  0  0  0  0  0
   -3.6466   -0.3331    1.3703 H   0  0  0  0  0  0  0  0  0  0  0  0
   -2.5455   -1.3310   -0.2341 O   0  0  0  0  0  1  0  0  0  0  0  0
  1  3  1  0  0  0  0
  2  1  1  0  0  0  0
  4  7  1  0  0  0  0
  4  1  1  0  0  0  0
  4  5  1  0  0  0  0
  6  4  1  0  0  0  0
  8  1  1  0  0  0  0
  8 11  1  0  0  0  0
  8 10  1  0  0  0  0
  9  8  1  0  0  0  0
 11 13  1  0  0  0  0
 12 11  1  0  0  0  0
 14 11  1  0  0  0  0
M  END
$$$$
Title Card Required
 OpenBabel06272217483D

 14 13  0  0  0  0  0  0  0  0999 V2000
   -0.9898    0.9686    0.2628 C   0  0  0  0  0  0  0  0  0  0  0  0
   -0.6307    2.0010   -0.1141 H   0  0  0  0  0  0  0  0  0  0  0  0
   -0.8816    1.1523    1.3515 H   0  0  0  0  0  0  0  0  0  0  0  0
   -0.4742   -0.3673   -0.2747 C   0  0  0  0  0  0  0  0  0  0  0  0
   -0.4079   -1.2381    0.3319 H   0  0  0  0  0  0  0  0  0  0  0  0
   -0.5937   -0.5641   -1.2781 H   0  0  0  0  0  0  0  0  0  0  0  0
    1.8486   -0.0104    0.0029 Br  0  0  0  0  0  0  0  0  0  0  0  0
   -2.6768    1.1454   -0.0368 C   0  0  0  0  0  0  0  0  0  0  0  0
   -2.5904    1.4851   -1.1928 H   0  0  0  0  0  0  0  0  0  0  0  0
   -3.0975    1.9001    0.6641 H   0  0  0  0  0  0  0  0  0  0  0  0
   -3.2579   -0.2786    0.2865 C   0  0  0  0  0  0  0  0  0  0  0  0
   -4.3852   -0.2030   -0.3365 H   0  0  0  0  0  0  0  0  0  0  0  0
   -3.6451   -0.2675    1.2950 H   0  0  0  0  0  0  0  0  0  0  0  0
   -2.5474   -1.3187   -0.2383 O   0  0  0  0  0  1  0  0  0  0  0  0
  1  3  1  0  0  0  0
  2  1  1  0  0  0  0
  4  7  1  0  0  0  0
  4  1  1  0  0  0  0
  4  5  1  0  0  0  0
  6  4  1  0  0  0  0
  8  1  1  0  0  0  0
  8 11  1  0  0  0  0
  8 10  1  0  0  0  0
  9  8  1  0  0  0  0
 11 13  1  0  0  0  0
 12 11  1  0  0  0  0
 14 11  1  0  0  0  0
M  END
$$$$
Title Card Required
 OpenBabel06272217483D

 14 13  0  0  0  0  0  0  0  0999 V2000
   -0.9824    0.9791    0.2602 C   0  0  0  0  0  0  0  0  0  0  0  0
   -0.6405    1.9636   -0.1025 H   0  0  0  0  0  0  0  0  0  0  0  0
   -0.9457    1.1087    1.2925 H   0  0  0  0  0  0  0  0  0  0  0  0
   -0.4800   -0.3859   -0.2890 C   0  0  0  0  0  0  0  0  0  0  0  0
   -0.4669   -1.2581    0.3574 H   0  0  0  0  0  0  0  0  0  0  0  0
   -0.5839   -0.6004   -1.2901 H   0  0  0  0  0  0  0  0  0  0  0  0
    1.8485   -0.0082    0.0038 Br  0  0  0  0  0  0  0  0  0  0  0  0
   -2.6651    1.1581   -0.0284 C   0  0  0  0  0  0  0  0  0  0  0  0
   -2.5582    1.4101   -1.1440 H   0  0  0  0  0  0  0  0  0  0  0  0
   -3.0555    1.8805    0.6792 H   0  0  0  0  0  0  0  0  0  0  0  0
   -3.2700   -0.2981    0.2930 C   0  0  0  0  0  0  0  0  0  0  0  0
   -4.3161   -0.2773   -0.3352 H   0  0  0  0  0  0  0  0  0  0  0  0
   -3.6363   -0.2067    1.2537 H   0  0  0  0  0  0  0  0  0  0  0  0
   -2.5494   -1.3031   -0.2405 O   0  0  0  0  0  1  0  0  0  0  0  0
  1  3  1  0  0  0  0
  2  1  1  0  0  0  0
  4  7  1  0  0  0  0
  4  1  1  0  0  0  0
  4  5  1  0  0  0  0
  6  4  1  0  0  0  0
  8  1  1  0  0  0  0
  8 11  1  0  0  0  0
  8 10  1  0  0  0  0
  9  8  1  0  0  0  0
 11 13  1  0  0  0  0
 12 11  1  0  0  0  0
 14 11  1  0  0  0  0
M  END
$$$$
Title Card Required
 OpenBabel06272217483D

 14 13  0  0  0  0  0  0  0  0999 V2000
   -0.9819    0.9884    0.2542 C   0  0  0  0  0  0  0  0  0  0  0  0
   -0.6297    1.9102   -0.1075 H   0  0  0  0  0  0  0  0  0  0  0  0
   -0.9914    1.0532    1.2875 H   0  0  0  0  0  0  0  0  0  0  0  0
   -0.4866   -0.4000   -0.2960 C   0  0  0  0  0  0  0  0  0  0  0  0
   -0.5210   -1.2698    0.3836 H   0  0  0  0  0  0  0  0  0  0  0  0
   -0.5711   -0.6416   -1.3576 H   0  0  0  0  0  0  0  0  0  0  0  0
    1.8483   -0.0061    0.0045 Br  0  0  0  0  0  0  0  0  0  0  0  0
   -2.6471    1.1646   -0.0217 C   0  0  0  0  0  0  0  0  0  0  0  0
   -2.5567    1.3357   -1.0670 H   0  0  0  0  0  0  0  0  0  0  0  0
   -3.0195    1.8826    0.6879 H   0  0  0  0  0  0  0  0  0  0  0  0
   -3.2834   -0.3148    0.2864 C   0  0  0  0  0  0  0  0  0  0  0  0
   -4.2279   -0.3413   -0.3086 H   0  0  0  0  0  0  0  0  0  0  0  0
   -3.6343   -0.1616    1.2914 H   0  0  0  0  0  0  0  0  0  0  0  0
   -2.5506   -1.2865   -0.2406 O   0  0  0  0  0  1  0  0  0  0  0  0
  1  3  1  0  0  0  0
  2  1  1  0  0  0  0
  4  7  1  0  0  0  0
  4  1  1  0  0  0  0
  4  5  1  0  0  0  0
  6  4  1  0  0  0  0
  8  1  1  0  0  0  0
  8 11  1  0  0  0  0
  8 10  1  0  0  0  0
  9  8  1  0  0  0  0
 11 13  1  0  0  0  0
 12 11  1  0  0  0  0
 14 11  1  0  0  0  0
M  END
$$$$
Title Card Required
 OpenBabel06272217483D

 14 13  0  0  0  0  0  0  0  0999 V2000
   -0.9895    0.9928    0.2452 C   0  0  0  0  0  0  0  0  0  0  0  0
   -0.5847    1.8761   -0.1377 H   0  0  0  0  0  0  0  0  0  0  0  0
   -1.0166    0.9878    1.3402 H   0  0  0  0  0  0  0  0  0  0  0  0
   -0.4950   -0.4119   -0.2997 C   0  0  0  0  0  0  0  0  0  0  0  0
   -0.5688   -1.2640    0.4000 H   0  0  0  0  0  0  0  0  0  0  0  0
   -0.5499   -0.6779   -1.4253 H   0  0  0  0  0  0  0  0  0  0  0  0
    1.8480   -0.0039    0.0052 Br  0  0  0  0  0  0  0  0  0  0  0  0
   -2.6232    1.1637   -0.0125 C   0  0  0  0  0  0  0  0  0  0  0  0
   -2.5823    1.2783   -1.0197 H   0  0  0  0  0  0  0  0  0  0  0  0
   -2.9916    1.9112    0.6926 H   0  0  0  0  0  0  0  0  0  0  0  0
   -3.2965   -0.3271    0.2719 C   0  0  0  0  0  0  0  0  0  0  0  0
   -4.1606   -0.3915   -0.2772 H   0  0  0  0  0  0  0  0  0  0  0  0
   -3.6291   -0.1373    1.3796 H   0  0  0  0  0  0  0  0  0  0  0  0
   -2.5498   -1.2699   -0.2393 O   0  0  0  0  0  1  0  0  0  0  0  0
  1  3  1  0  0  0  0
  2  1  1  0  0  0  0
  4  7  1  0  0  0  0
  4  1  1  0  0  0  0
  4  5  1  0  0  0  0
  6  4  1  0  0  0  0
  8  1  1  0  0  0  0
  8 11  1  0  0  0  0
  8 10  1  0  0  0  0
  9  8  1  0  0  0  0
 11 13  1  0  0  0  0
 12 11  1  0  0  0  0
 14 11  1  0  0  0  0
M  END
$$$$
Title Card Required
 OpenBabel06272217483D

 14 12  0  0  0  0  0  0  0  0999 V2000
   -1.0056    0.9900    0.2371 C   0  0  0  0  0  0  0  0  0  0  0  0
   -0.5026    1.8696   -0.1890 H   0  0  0  0  0  0  0  0  0  0  0  0
   -1.0162    0.9175    1.4004 H   0  0  0  0  0  0  0  0  0  0  0  0
   -0.5059   -0.4222   -0.3040 C   0  0  0  0  0  3  0  0  0  0  0  0
   -0.6049   -1.2418    0.4033 H   0  0  0  0  0  0  0  0  0  0  0  0
   -0.5181   -0.6984   -1.4432 H   0  0  0  0  0  0  0  0  0  0  0  0
    1.8477   -0.0017    0.0058 Br  0  0  0  0  0 15  0  0  0  0  0  0
   -2.5939    1.1550    0.0032 C   0  0  0  0  0  0  0  0  0  0  0  0
   -2.6344    1.2505   -1.0549 H   0  0  0  0  0  0  0  0  0  0  0  0
   -2.9691    1.9580    0.6836 H   0  0  0  0  0  0  0  0  0  0  0  0
   -3.3058   -0.3326    0.2584 C   0  0  0  0  0  0  0  0  0  0  0  0
   -4.1819   -0.4243   -0.2755 H   0  0  0  0  0  0  0  0  0  0  0  0
   -3.6068   -0.1443    1.4641 H   0  0  0  0  0  0  0  0  0  0  0  0
   -2.5458   -1.2541   -0.2368 O   0  0  0  0  0  1  0  0  0  0  0  0
  1  3  1  0  0  0  0
  2  1  1  0  0  0  0
  4  1  1  0  0  0  0
  4  5  1  0  0  0  0
  6  4  1  0  0  0  0
  8  1  1  0  0  0  0
  8 11  1  0  0  0  0
  8 10  1  0  0  0  0
  9  8  1  0  0  0  0
 11 13  1  0  0  0  0
 12 11  1  0  0  0  0
 14 11  1  0  0  0  0
M  END
$$$$
Title Card Required
 OpenBabel06272217483D

 14 12  0  0  0  0  0  0  0  0999 V2000
   -1.0253    0.9828    0.2327 C   0  0  0  0  0  0  0  0  0  0  0  0
   -0.4191    1.8581   -0.2312 H   0  0  0  0  0  0  0  0  0  0  0  0
   -0.9915    0.8605    1.4165 H   0  0  0  0  0  0  0  0  0  0  0  0
   -0.5178   -0.4292   -0.3095 C   0  0  0  0  0  3  0  0  0  0  0  0
   -0.6225   -1.2194    0.4010 H   0  0  0  0  0  0  0  0  0  0  0  0
   -0.4835   -0.7004   -1.4056 H   0  0  0  0  0  0  0  0  0  0  0  0
    1.8472    0.0002    0.0062 Br  0  0  0  0  0 15  0  0  0  0  0  0
   -2.5652    1.1423    0.0197 C   0  0  0  0  0  0  0  0  0  0  0  0
   -2.6991    1.2494   -1.1221 H   0  0  0  0  0  0  0  0  0  0  0  0
   -2.9492    1.9998    0.6553 H   0  0  0  0  0  0  0  0  0  0  0  0
   -3.3100   -0.3306    0.2509 C   0  0  0  0  0  0  0  0  0  0  0  0
   -4.2807   -0.4342   -0.2967 H   0  0  0  0  0  0  0  0  0  0  0  0
   -3.5712   -0.1810    1.5043 H   0  0  0  0  0  0  0  0  0  0  0  0
   -2.5393   -1.2415   -0.2343 O   0  0  0  0  0  1  0  0  0  0  0  0
  1  3  1  0  0  0  0
  2  1  1  0  0  0  0
  4  1  1  0  0  0  0
  4  5  1  0  0  0  0
  6  4  1  0  0  0  0
  8  1  1  0  0  0  0
  8 11  1  0  0  0  0
  8 10  1  0  0  0  0
  9  8  1  0  0  0  0
 11 13  1  0  0  0  0
 12 11  1  0  0  0  0
 14 11  1  0  0  0  0
M  END
$$$$
Title Card Required
 OpenBabel06272217483D

 14 12  0  0  0  0  0  0  0  0999 V2000
   -1.0458    0.9729    0.2306 C   0  0  0  0  0  0  0  0  0  0  0  0
   -0.3559    1.8160   -0.2489 H   0  0  0  0  0  0  0  0  0  0  0  0
   -0.9484    0.8195    1.3845 H   0  0  0  0  0  0  0  0  0  0  0  0
   -0.5312   -0.4328   -0.3152 C   0  0  0  0  0  3  0  0  0  0  0  0
   -0.6238   -1.2087    0.4032 H   0  0  0  0  0  0  0  0  0  0  0  0
   -0.4473   -0.6922   -1.3417 H   0  0  0  0  0  0  0  0  0  0  0  0
    1.8467    0.0020    0.0067 Br  0  0  0  0  0 15  0  0  0  0  0  0
   -2.5380    1.1277    0.0323 C   0  0  0  0  0  0  0  0  0  0  0  0
   -2.7651    1.2628   -1.1599 H   0  0  0  0  0  0  0  0  0  0  0  0
   -2.9274    2.0277    0.6081 H   0  0  0  0  0  0  0  0  0  0  0  0
   -3.3137   -0.3229    0.2470 C   0  0  0  0  0  0  0  0  0  0  0  0
   -4.3930   -0.4208   -0.3065 H   0  0  0  0  0  0  0  0  0  0  0  0
   -3.5269   -0.2412    1.4993 H   0  0  0  0  0  0  0  0  0  0  0  0
   -2.5307   -1.2308   -0.2318 O   0  0  0  0  0  1  0  0  0  0  0  0
  1  3  1  0  0  0  0
  2  1  1  0  0  0  0
  4  1  1  0  0  0  0
  4  5  1  0  0  0  0
  6  4  1  0  0  0  0
  8  1  1  0  0  0  0
  8 11  1  0  0  0  0
  8 10  1  0  0  0  0
  9  8  1  0  0  0  0
 11 13  1  0  0  0  0
 12 11  1  0  0  0  0
 14 11  1  0  0  0  0
M  END
$$$$
Title Card Required
 OpenBabel06272217483D

 14 12  0  0  0  0  0  0  0  0999 V2000
   -1.0639    0.9602    0.2292 C   0  0  0  0  0  0  0  0  0  0  0  0
   -0.3268    1.7391   -0.2371 H   0  0  0  0  0  0  0  0  0  0  0  0
   -0.8922    0.7968    1.3160 H   0  0  0  0  0  0  0  0  0  0  0  0
   -0.5470   -0.4325   -0.3176 C   0  0  0  0  0  3  0  0  0  0  0  0
   -0.6078   -1.2138    0.4135 H   0  0  0  0  0  0  0  0  0  0  0  0
   -0.4083   -0.6848   -1.2979 H   0  0  0  0  0  0  0  0  0  0  0  0
    1.8460    0.0038    0.0070 Br  0  0  0  0  0 15  0  0  0  0  0  0
   -2.5150    1.1128    0.0386 C   0  0  0  0  0  0  0  0  0  0  0  0
   -2.8181    1.2831   -1.1430 H   0  0  0  0  0  0  0  0  0  0  0  0
   -2.9024    2.0376    0.5473 H   0  0  0  0  0  0  0  0  0  0  0  0
   -3.3188   -0.3109    0.2459 C   0  0  0  0  0  0  0  0  0  0  0  0
   -4.4739   -0.3837   -0.2874 H   0  0  0  0  0  0  0  0  0  0  0  0
   -3.4796   -0.3189    1.4489 H   0  0  0  0  0  0  0  0  0  0  0  0
   -2.5204   -1.2215   -0.2297 O   0  0  0  0  0  1  0  0  0  0  0  0
  1  3  1  0  0  0  0
  2  1  1  0  0  0  0
  4  1  1  0  0  0  0
  4  5  1  0  0  0  0
  6  4  1  0  0  0  0
  8  1  1  0  0  0  0
  8 11  1  0  0  0  0
  8 10  1  0  0  0  0
  9  8  1  0  0  0  0
 11 13  1  0  0  0  0
 12 11  1  0  0  0  0
 14 11  1  0  0  0  0
M  END
$$$$
Title Card Required
 OpenBabel06272217483D

 14 12  0  0  0  0  0  0  0  0999 V2000
   -1.0764    0.9450    0.2268 C   0  0  0  0  0  0  0  0  0  0  0  0
   -0.3323    1.6478   -0.2046 H   0  0  0  0  0  0  0  0  0  0  0  0
   -0.8321    0.7914    1.2468 H   0  0  0  0  0  0  0  0  0  0  0  0
   -0.5648   -0.4294   -0.3139 C   0  0  0  0  0  3  0  0  0  0  0  0
   -0.5762   -1.2273    0.4250 H   0  0  0  0  0  0  0  0  0  0  0  0
   -0.3668   -0.6868   -1.3090 H   0  0  0  0  0  0  0  0  0  0  0  0
    1.8453    0.0055    0.0073 Br  0  0  0  0  0 15  0  0  0  0  0  0
   -2.5002    1.0998    0.0377 C   0  0  0  0  0  0  0  0  0  0  0  0
   -2.8451    1.3025   -1.0779 H   0  0  0  0  0  0  0  0  0  0  0  0
   -2.8784    2.0332    0.4890 H   0  0  0  0  0  0  0  0  0  0  0  0
   -3.3248   -0.2967    0.2473 C   0  0  0  0  0  0  0  0  0  0  0  0
   -4.5022   -0.3302   -0.2423 H   0  0  0  0  0  0  0  0  0  0  0  0
   -3.4395   -0.3992    1.3702 H   0  0  0  0  0  0  0  0  0  0  0  0
   -2.5096   -1.2138   -0.2287 O   0  0  0  0  0  1  0  0  0  0  0  0
  1  3  1  0  0  0  0
  2  1  1  0  0  0  0
  4  1  1  0  0  0  0
  4  5  1  0  0  0  0
  6  4  1  0  0  0  0
  8  1  1  0  0  0  0
  8 11  1  0  0  0  0
  8 10  1  0  0  0  0
  9  8  1  0  0  0  0
 11 13  1  0  0  0  0
 12 11  1  0  0  0  0
 14 11  1  0  0  0  0
M  END
$$$$
Title Card Required
 OpenBabel06272217483D

 14 12  0  0  0  0  0  0  0  0999 V2000
   -1.0839    0.9266    0.2222 C   0  0  0  0  0  0  0  0  0  0  0  0
   -0.3537    1.5668   -0.1697 H   0  0  0  0  0  0  0  0  0  0  0  0
   -0.7695    0.7966    1.2094 H   0  0  0  0  0  0  0  0  0  0  0  0
   -0.5850   -0.4262   -0.3061 C   0  0  0  0  0  3  0  0  0  0  0  0
   -0.5319   -1.2395    0.4306 H   0  0  0  0  0  0  0  0  0  0  0  0
   -0.3267   -0.6924   -1.3505 H   0  0  0  0  0  0  0  0  0  0  0  0
    1.8447    0.0071    0.0076 Br  0  0  0  0  0 15  0  0  0  0  0  0
   -2.4935    1.0885    0.0316 C   0  0  0  0  0  0  0  0  0  0  0  0
   -2.8466    1.3173   -0.9895 H   0  0  0  0  0  0  0  0  0  0  0  0
   -2.8587    2.0248    0.4446 H   0  0  0  0  0  0  0  0  0  0  0  0
   -3.3305   -0.2811    0.2497 C   0  0  0  0  0  0  0  0  0  0  0  0
   -4.4822   -0.2661   -0.1805 H   0  0  0  0  0  0  0  0  0  0  0  0
   -3.4124   -0.4751    1.2929 H   0  0  0  0  0  0  0  0  0  0  0  0
   -2.4983   -1.2073   -0.2292 O   0  0  0  0  0  1  0  0  0  0  0  0
  1  3  1  0  0  0  0
  2  1  1  0  0  0  0
  4  1  1  0  0  0  0
  4  5  1  0  0  0  0
  6  4  1  0  0  0  0
  8  1  1  0  0  0  0
  8 11  1  0  0  0  0
  8 10  1  0  0  0  0
  9  8  1  0  0  0  0
 11 13  1  0  0  0  0
 12 11  1  0  0  0  0
 14 11  1  0  0  0  0
M  END
$$$$
Title Card Required
 OpenBabel06272217483D

 14 12  0  0  0  0  0  0  0  0999 V2000
   -1.0883    0.9016    0.2157 C   0  0  0  0  0  0  0  0  0  0  0  0
   -0.3658    1.5210   -0.1522 H   0  0  0  0  0  0  0  0  0  0  0  0
   -0.7029    0.8097    1.2165 H   0  0  0  0  0  0  0  0  0  0  0  0
   -0.6093   -0.4254   -0.2972 C   0  0  0  0  0  3  0  0  0  0  0  0
   -0.4735   -1.2448    0.4257 H   0  0  0  0  0  0  0  0  0  0  0  0
   -0.2949   -0.6911   -1.3837 H   0  0  0  0  0  0  0  0  0  0  0  0
    1.8441    0.0088    0.0080 Br  0  0  0  0  0 15  0  0  0  0  0  0
   -2.4945    1.0775    0.0227 C   0  0  0  0  0  0  0  0  0  0  0  0
   -2.8294    1.3297   -0.9118 H   0  0  0  0  0  0  0  0  0  0  0  0
   -2.8452    2.0217    0.4222 H   0  0  0  0  0  0  0  0  0  0  0  0
   -3.3353   -0.2629    0.2515 C   0  0  0  0  0  0  0  0  0  0  0  0
   -4.4184   -0.1910   -0.1076 H   0  0  0  0  0  0  0  0  0  0  0  0
   -3.4014   -0.5499    1.2508 H   0  0  0  0  0  0  0  0  0  0  0  0
   -2.4854   -1.2013   -0.2318 O   0  0  0  0  0  1  0  0  0  0  0  0
  1  3  1  0  0  0  0
  2  1  1  0  0  0  0
  4  1  1  0  0  0  0
  4  5  1  0  0  0  0
  6  4  1  0  0  0  0
  8  1  1  0  0  0  0
  8 11  1  0  0  0  0
  8 10  1  0  0  0  0
  9  8  1  0  0  0  0
 11 13  1  0  0  0  0
 12 11  1  0  0  0  0
 14 11  1  0  0  0  0
M  END
$$$$
Title Card Required
 OpenBabel06272217483D

 14 12  0  0  0  0  0  0  0  0999 V2000
   -1.0896    0.8701    0.2105 C   0  0  0  0  0  0  0  0  0  0  0  0
   -0.3519    1.5322   -0.1689 H   0  0  0  0  0  0  0  0  0  0  0  0
   -0.6471    0.8311    1.2533 H   0  0  0  0  0  0  0  0  0  0  0  0
   -0.6369   -0.4301   -0.2905 C   0  0  0  0  0  3  0  0  0  0  0  0
   -0.4057   -1.2398    0.4091 H   0  0  0  0  0  0  0  0  0  0  0  0
   -0.2837   -0.6747   -1.3777 H   0  0  0  0  0  0  0  0  0  0  0  0
    1.8437    0.0106    0.0083 Br  0  0  0  0  0 15  0  0  0  0  0  0
   -2.5023    1.0666    0.0164 C   0  0  0  0  0  0  0  0  0  0  0  0
   -2.8090    1.3467   -0.9088 H   0  0  0  0  0  0  0  0  0  0  0  0
   -2.8395    2.0273    0.4322 H   0  0  0  0  0  0  0  0  0  0  0  0
   -3.3360   -0.2424    0.2526 C   0  0  0  0  0  0  0  0  0  0  0  0
   -4.3374   -0.1114   -0.0440 H   0  0  0  0  0  0  0  0  0  0  0  0
   -3.4087   -0.6170    1.2698 H   0  0  0  0  0  0  0  0  0  0  0  0
   -2.4709   -1.1959   -0.2374 O   0  0  0  0  0  1  0  0  0  0  0  0
  1  3  1  0  0  0  0
  2  1  1  0  0  0  0
  4  1  1  0  0  0  0
  4  5  1  0  0  0  0
  6  4  1  0  0  0  0
  8  1  1  0  0  0  0
  8 11  1  0  0  0  0
  8 10  1  0  0  0  0
  9  8  1  0  0  0  0
 11 13  1  0  0  0  0
 12 11  1  0  0  0  0
 14 11  1  0  0  0  0
M  END
$$$$
Title Card Required
 OpenBabel06272217483D

 14 12  0  0  0  0  0  0  0  0999 V2000
   -1.0858    0.8389    0.2089 C   0  0  0  0  0  0  0  0  0  0  0  0
   -0.3351    1.5749   -0.2068 H   0  0  0  0  0  0  0  0  0  0  0  0
   -0.6202    0.8570    1.2847 H   0  0  0  0  0  0  0  0  0  0  0  0
   -0.6651   -0.4409   -0.2874 C   0  0  0  0  0  3  0  0  0  0  0  0
   -0.3397   -1.2278    0.3872 H   0  0  0  0  0  0  0  0  0  0  0  0
   -0.2966   -0.6458   -1.3340 H   0  0  0  0  0  0  0  0  0  0  0  0
    1.8435    0.0124    0.0087 Br  0  0  0  0  0 15  0  0  0  0  0  0
   -2.5145    1.0577    0.0150 C   0  0  0  0  0  0  0  0  0  0  0  0
   -2.7917    1.3672   -0.9853 H   0  0  0  0  0  0  0  0  0  0  0  0
   -2.8385    2.0322    0.4680 H   0  0  0  0  0  0  0  0  0  0  0  0
   -3.3291   -0.2234    0.2565 C   0  0  0  0  0  0  0  0  0  0  0  0
   -4.2961   -0.0374   -0.0167 H   0  0  0  0  0  0  0  0  0  0  0  0
   -3.4276   -0.6585    1.3202 H   0  0  0  0  0  0  0  0  0  0  0  0
   -2.4563   -1.1912   -0.2453 O   0  0  0  0  0  1  0  0  0  0  0  0
  1  3  1  0  0  0  0
  2  1  1  0  0  0  0
  4  1  1  0  0  0  0
  4  5  1  0  0  0  0
  6  4  1  0  0  0  0
  8  1  1  0  0  0  0
  8 11  1  0  0  0  0
  8 10  1  0  0  0  0
  9  8  1  0  0  0  0
 11 13  1  0  0  0  0
 12 11  1  0  0  0  0
 14 11  1  0  0  0  0
M  END
$$$$
Title Card Required
 OpenBabel06272217483D

 14 12  0  0  0  0  0  0  0  0999 V2000
   -1.0768    0.8125    0.2108 C   0  0  0  0  0  0  0  0  0  0  0  0
   -0.3403    1.6136   -0.2467 H   0  0  0  0  0  0  0  0  0  0  0  0
   -0.6233    0.8833    1.2947 H   0  0  0  0  0  0  0  0  0  0  0  0
   -0.6940   -0.4572   -0.2869 C   0  0  0  0  0  3  0  0  0  0  0  0
   -0.2789   -1.2135    0.3658 H   0  0  0  0  0  0  0  0  0  0  0  0
   -0.3256   -0.6114   -1.2776 H   0  0  0  0  0  0  0  0  0  0  0  0
    1.8436    0.0141    0.0090 Br  0  0  0  0  0 15  0  0  0  0  0  0
   -2.5295    1.0525    0.0152 C   0  0  0  0  0  0  0  0  0  0  0  0
   -2.7689    1.3795   -1.0812 H   0  0  0  0  0  0  0  0  0  0  0  0
   -2.8384    2.0258    0.5152 H   0  0  0  0  0  0  0  0  0  0  0  0
   -3.3147   -0.2077    0.2650 C   0  0  0  0  0  0  0  0  0  0  0  0
   -4.3105    0.0293   -0.0277 H   0  0  0  0  0  0  0  0  0  0  0  0
   -3.4504   -0.6668    1.3658 H   0  0  0  0  0  0  0  0  0  0  0  0
   -2.4420   -1.1867   -0.2549 O   0  0  0  0  0  1  0  0  0  0  0  0
  1  3  1  0  0  0  0
  2  1  1  0  0  0  0
  4  1  1  0  0  0  0
  4  5  1  0  0  0  0
  6  4  1  0  0  0  0
  8  1  1  0  0  0  0
  8 11  1  0  0  0  0
  8 10  1  0  0  0  0
  9  8  1  0  0  0  0
 11 13  1  0  0  0  0
 12 11  1  0  0  0  0
 14 11  1  0  0  0  0
M  END
$$$$
Title Card Required
 OpenBabel06272217483D

 14 13  0  0  0  0  0  0  0  0999 V2000
   -1.0636    0.7923    0.2156 C   0  0  0  0  0  0  0  0  0  0  0  0
   -0.3743    1.6319   -0.2800 H   0  0  0  0  0  0  0  0  0  0  0  0
   -0.6515    0.9073    1.2824 H   0  0  0  0  0  0  0  0  0  0  0  0
   -0.7256   -0.4791   -0.2864 C   0  0  0  0  0  0  0  0  0  0  0  0
   -0.2237   -1.1998    0.3477 H   0  0  0  0  0  0  0  0  0  0  0  0
   -0.3602   -0.5774   -1.2390 H   0  0  0  0  0  0  0  0  0  0  0  0
    1.8440    0.0158    0.0094 Br  0  0  0  0  0 15  0  0  0  0  0  0
   -2.5460    1.0520    0.0145 C   0  0  0  0  0  0  0  0  0  0  0  0
   -2.7363    1.3764   -1.1547 H   0  0  0  0  0  0  0  0  0  0  0  0
   -2.8381    2.0031    0.5648 H   0  0  0  0  0  0  0  0  0  0  0  0
   -3.2960   -0.1953    0.2778 C   0  0  0  0  0  0  0  0  0  0  0  0
   -4.3503    0.0830   -0.0636 H   0  0  0  0  0  0  0  0  0  0  0  0
   -3.4727   -0.6411    1.3917 H   0  0  0  0  0  0  0  0  0  0  0  0
   -2.4276   -1.1817   -0.2660 O   0  0  0  0  0  0  0  0  0  0  0  0
  1  3  1  0  0  0  0
  2  1  1  0  0  0  0
  4 14  1  0  0  0  0
  4  1  1  0  0  0  0
  4  5  1  0  0  0  0
  6  4  1  0  0  0  0
  8  1  1  0  0  0  0
  8 11  1  0  0  0  0
  8 10  1  0  0  0  0
  9  8  1  0  0  0  0
 11 13  1  0  0  0  0
 12 11  1  0  0  0  0
 14 11  1  0  0  0  0
M  END
$$$$
Title Card Required
 OpenBabel06272217483D

 14 13  0  0  0  0  0  0  0  0999 V2000
   -1.0483    0.7796    0.2222 C   0  0  0  0  0  0  0  0  0  0  0  0
   -0.4326    1.6242   -0.3029 H   0  0  0  0  0  0  0  0  0  0  0  0
   -0.6964    0.9264    1.2565 H   0  0  0  0  0  0  0  0  0  0  0  0
   -0.7602   -0.5056   -0.2842 C   0  0  0  0  0  0  0  0  0  0  0  0
   -0.1776   -1.1889    0.3335 H   0  0  0  0  0  0  0  0  0  0  0  0
   -0.3903   -0.5488   -1.2442 H   0  0  0  0  0  0  0  0  0  0  0  0
    1.8447    0.0176    0.0097 Br  0  0  0  0  0 15  0  0  0  0  0  0
   -2.5617    1.0562    0.0120 C   0  0  0  0  0  0  0  0  0  0  0  0
   -2.6977    1.3570   -1.1862 H   0  0  0  0  0  0  0  0  0  0  0  0
   -2.8385    1.9661    0.6095 H   0  0  0  0  0  0  0  0  0  0  0  0
   -3.2769   -0.1863    0.2930 C   0  0  0  0  0  0  0  0  0  0  0  0
   -4.3800    0.1136   -0.1088 H   0  0  0  0  0  0  0  0  0  0  0  0
   -3.4901   -0.5852    1.3929 H   0  0  0  0  0  0  0  0  0  0  0  0
   -2.4130   -1.1759   -0.2777 O   0  0  0  0  0  0  0  0  0  0  0  0
  1  3  1  0  0  0  0
  2  1  1  0  0  0  0
  4 14  1  0  0  0  0
  4  1  1  0  0  0  0
  4  5  1  0  0  0  0
  6  4  1  0  0  0  0
  8  1  1  0  0  0  0
  8 11  1  0  0  0  0
  8 10  1  0  0  0  0
  9  8  1  0  0  0  0
 11 13  1  0  0  0  0
 12 11  1  0  0  0  0
 14 11  1  0  0  0  0
M  END
$$$$
Title Card Required
 OpenBabel06272217483D

 14 13  0  0  0  0  0  0  0  0999 V2000
   -1.0340    0.7738    0.2289 C   0  0  0  0  0  0  0  0  0  0  0  0
   -0.5010    1.5959   -0.3163 H   0  0  0  0  0  0  0  0  0  0  0  0
   -0.7448    0.9403    1.2345 H   0  0  0  0  0  0  0  0  0  0  0  0
   -0.7962   -0.5349   -0.2805 C   0  0  0  0  0  0  0  0  0  0  0  0
   -0.1443   -1.1815    0.3221 H   0  0  0  0  0  0  0  0  0  0  0  0
   -0.4154   -0.5273   -1.2855 H   0  0  0  0  0  0  0  0  0  0  0  0
    1.8457    0.0193    0.0101 Br  0  0  0  0  0 15  0  0  0  0  0  0
   -2.5745    1.0641    0.0080 C   0  0  0  0  0  0  0  0  0  0  0  0
   -2.6601    1.3267   -1.1747 H   0  0  0  0  0  0  0  0  0  0  0  0
   -2.8414    1.9243    0.6457 H   0  0  0  0  0  0  0  0  0  0  0  0
   -3.2605   -0.1804    0.3080 C   0  0  0  0  0  0  0  0  0  0  0  0
   -4.3825    0.1173   -0.1507 H   0  0  0  0  0  0  0  0  0  0  0  0
   -3.4999   -0.5107    1.3744 H   0  0  0  0  0  0  0  0  0  0  0  0
   -2.3990   -1.1695   -0.2891 O   0  0  0  0  0  0  0  0  0  0  0  0
  1  3  1  0  0  0  0
  2  1  1  0  0  0  0
  4  1  1  0  0  0  0
  4  5  1  0  0  0  0
  6  4  1  0  0  0  0
  8  1  1  0  0  0  0
  8 11  1  0  0  0  0
  8 10  1  0  0  0  0
  9  8  1  0  0  0  0
 11 13  1  0  0  0  0
 12 11  1  0  0  0  0
 14  4  1  0  0  0  0
 14 11  1  0  0  0  0
M  END
$$$$
Title Card Required
 OpenBabel06272217483D

 14 13  0  0  0  0  0  0  0  0999 V2000
   -1.0224    0.7727    0.2345 C   0  0  0  0  0  0  0  0  0  0  0  0
   -0.5665    1.5590   -0.3266 H   0  0  0  0  0  0  0  0  0  0  0  0
   -0.7879    0.9513    1.2322 H   0  0  0  0  0  0  0  0  0  0  0  0
   -0.8328   -0.5659   -0.2772 C   0  0  0  0  0  0  0  0  0  0  0  0
   -0.1243   -1.1776    0.3110 H   0  0  0  0  0  0  0  0  0  0  0  0
   -0.4431   -0.5122   -1.3359 H   0  0  0  0  0  0  0  0  0  0  0  0
    1.8470    0.0209    0.0104 Br  0  0  0  0  0 15  0  0  0  0  0  0
   -2.5838    1.0740    0.0030 C   0  0  0  0  0  0  0  0  0  0  0  0
   -2.6275    1.2914   -1.1307 H   0  0  0  0  0  0  0  0  0  0  0  0
   -2.8482    1.8860    0.6755 H   0  0  0  0  0  0  0  0  0  0  0  0
   -3.2469   -0.1768    0.3212 C   0  0  0  0  0  0  0  0  0  0  0  0
   -4.3573    0.0968   -0.1848 H   0  0  0  0  0  0  0  0  0  0  0  0
   -3.5031   -0.4284    1.3487 H   0  0  0  0  0  0  0  0  0  0  0  0
   -2.3852   -1.1625   -0.2998 O   0  0  0  0  0  0  0  0  0  0  0  0
  1  3  1  0  0  0  0
  2  1  1  0  0  0  0
  4  1  1  0  0  0  0
  4  5  1  0  0  0  0
  6  4  1  0  0  0  0
  8  1  1  0  0  0  0
  8 11  1  0  0  0  0
  8 10  1  0  0  0  0
  9  8  1  0  0  0  0
 11 13  1  0  0  0  0
 12 11  1  0  0  0  0
 14  4  1  0  0  0  0
 14 11  1  0  0  0  0
M  END
$$$$
Title Card Required
 OpenBabel06272217483D

 14 13  0  0  0  0  0  0  0  0999 V2000
   -1.0143    0.7738    0.2390 C   0  0  0  0  0  0  0  0  0  0  0  0
   -0.6184    1.5270   -0.3425 H   0  0  0  0  0  0  0  0  0  0  0  0
   -0.8225    0.9613    1.2553 H   0  0  0  0  0  0  0  0  0  0  0  0
   -0.8707   -0.5983   -0.2754 C   0  0  0  0  0  0  0  0  0  0  0  0
   -0.1172   -1.1774    0.2981 H   0  0  0  0  0  0  0  0  0  0  0  0
   -0.4793   -0.5041   -1.3759 H   0  0  0  0  0  0  0  0  0  0  0  0
    1.8484    0.0226    0.0108 Br  0  0  0  0  0 15  0  0  0  0  0  0
   -2.5897    1.0849   -0.0022 C   0  0  0  0  0  0  0  0  0  0  0  0
   -2.6021    1.2566   -1.0687 H   0  0  0  0  0  0  0  0  0  0  0  0
   -2.8601    1.8567    0.7013 H   0  0  0  0  0  0  0  0  0  0  0  0
   -3.2354   -0.1745    0.3312 C   0  0  0  0  0  0  0  0  0  0  0  0
   -4.3070    0.0542   -0.2100 H   0  0  0  0  0  0  0  0  0  0  0  0
   -3.5022   -0.3454    1.3313 H   0  0  0  0  0  0  0  0  0  0  0  0
   -2.3711   -1.1548   -0.3098 O   0  0  0  0  0  0  0  0  0  0  0  0
  1  3  1  0  0  0  0
  2  1  1  0  0  0  0
  4  1  1  0  0  0  0
  4  5  1  0  0  0  0
  6  4  1  0  0  0  0
  8  1  1  0  0  0  0
  8 11  1  0  0  0  0
  8 10  1  0  0  0  0
  9  8  1  0  0  0  0
 11 13  1  0  0  0  0
 12 11  1  0  0  0  0
 14  4  1  0  0  0  0
 14 11  1  0  0  0  0
M  END
$$$$
Title Card Required
 OpenBabel06272217483D

 14 13  0  0  0  0  0  0  0  0999 V2000
   -1.0103    0.7753    0.2434 C   0  0  0  0  0  0  0  0  0  0  0  0
   -0.6478    1.5117   -0.3722 H   0  0  0  0  0  0  0  0  0  0  0  0
   -0.8482    0.9702    1.2980 H   0  0  0  0  0  0  0  0  0  0  0  0
   -0.9102   -0.6317   -0.2757 C   0  0  0  0  0  0  0  0  0  0  0  0
   -0.1235   -1.1820    0.2826 H   0  0  0  0  0  0  0  0  0  0  0  0
   -0.5266   -0.5046   -1.3947 H   0  0  0  0  0  0  0  0  0  0  0  0
    1.8502    0.0243    0.0111 Br  0  0  0  0  0 15  0  0  0  0  0  0
   -2.5921    1.0961   -0.0058 C   0  0  0  0  0  0  0  0  0  0  0  0
   -2.5859    1.2287   -1.0126 H   0  0  0  0  0  0  0  0  0  0  0  0
   -2.8775    1.8401    0.7241 H   0  0  0  0  0  0  0  0  0  0  0  0
   -3.2253   -0.1729    0.3367 C   0  0  0  0  0  0  0  0  0  0  0  0
   -4.2354   -0.0094   -0.2261 H   0  0  0  0  0  0  0  0  0  0  0  0
   -3.4997   -0.2676    1.3375 H   0  0  0  0  0  0  0  0  0  0  0  0
   -2.3565   -1.1465   -0.3190 O   0  0  0  0  0  0  0  0  0  0  0  0
  1  3  1  0  0  0  0
  2  1  1  0  0  0  0
  4  1  1  0  0  0  0
  4  5  1  0  0  0  0
  6  4  1  0  0  0  0
  8  1  1  0  0  0  0
  8 11  1  0  0  0  0
  8 10  1  0  0  0  0
  9  8  1  0  0  0  0
 11 13  1  0  0  0  0
 12 11  1  0  0  0  0
 14  4  1  0  0  0  0
 14 11  1  0  0  0  0
M  END
$$$$
Title Card Required
 OpenBabel06272217483D

 14 13  0  0  0  0  0  0  0  0999 V2000
   -1.0105    0.7766    0.2486 C   0  0  0  0  0  0  0  0  0  0  0  0
   -0.6513    1.5153   -0.4150 H   0  0  0  0  0  0  0  0  0  0  0  0
   -0.8651    0.9762    1.3444 H   0  0  0  0  0  0  0  0  0  0  0  0
   -0.9504   -0.6643   -0.2784 C   0  0  0  0  0  0  0  0  0  0  0  0
   -0.1426   -1.1926    0.2648 H   0  0  0  0  0  0  0  0  0  0  0  0
   -0.5837   -0.5149   -1.3888 H   0  0  0  0  0  0  0  0  0  0  0  0
    1.8521    0.0261    0.0115 Br  0  0  0  0  0 15  0  0  0  0  0  0
   -2.5913    1.1066   -0.0050 C   0  0  0  0  0  0  0  0  0  0  0  0
   -2.5802    1.2150   -0.9935 H   0  0  0  0  0  0  0  0  0  0  0  0
   -2.8993    1.8371    0.7415 H   0  0  0  0  0  0  0  0  0  0  0  0
   -3.2161   -0.1718    0.3373 C   0  0  0  0  0  0  0  0  0  0  0  0
   -4.1529   -0.0901   -0.2349 H   0  0  0  0  0  0  0  0  0  0  0  0
   -3.4958   -0.1997    1.3708 H   0  0  0  0  0  0  0  0  0  0  0  0
   -2.3418   -1.1377   -0.3270 O   0  0  0  0  0  0  0  0  0  0  0  0
  1  3  1  0  0  0  0
  2  1  1  0  0  0  0
  4  1  1  0  0  0  0
  4  5  1  0  0  0  0
  6  4  1  0  0  0  0
  8  1  1  0  0  0  0
  8 11  1  0  0  0  0
  8 10  1  0  0  0  0
  9  8  1  0  0  0  0
 11 13  1  0  0  0  0
 12 11  1  0  0  0  0
 14  4  1  0  0  0  0
 14 11  1  0  0  0  0
M  END
$$$$
Title Card Required
 OpenBabel06272217483D

 14 13  0  0  0  0  0  0  0  0999 V2000
   -1.0145    0.7782    0.2546 C   0  0  0  0  0  0  0  0  0  0  0  0
   -0.6337    1.5273   -0.4597 H   0  0  0  0  0  0  0  0  0  0  0  0
   -0.8736    0.9776    1.3795 H   0  0  0  0  0  0  0  0  0  0  0  0
   -0.9899   -0.6946   -0.2829 C   0  0  0  0  0  0  0  0  0  0  0  0
   -0.1726   -1.2104    0.2462 H   0  0  0  0  0  0  0  0  0  0  0  0
   -0.6461   -0.5347   -1.3620 H   0  0  0  0  0  0  0  0  0  0  0  0
    1.8543    0.0278    0.0118 Br  0  0  0  0  0 15  0  0  0  0  0  0
   -2.5875    1.1159    0.0008 C   0  0  0  0  0  0  0  0  0  0  0  0
   -2.5848    1.2177   -1.0225 H   0  0  0  0  0  0  0  0  0  0  0  0
   -2.9234    1.8457    0.7506 H   0  0  0  0  0  0  0  0  0  0  0  0
   -3.2071   -0.1714    0.3347 C   0  0  0  0  0  0  0  0  0  0  0  0
   -4.0774   -0.1818   -0.2426 H   0  0  0  0  0  0  0  0  0  0  0  0
   -3.4875   -0.1444    1.4183 H   0  0  0  0  0  0  0  0  0  0  0  0
   -2.3275   -1.1290   -0.3334 O   0  0  0  0  0  0  0  0  0  0  0  0
  1  3  1  0  0  0  0
  2  1  1  0  0  0  0
  4  5  1  0  0  0  0
  4  1  1  0  0  0  0
  6  4  1  0  0  0  0
  8  1  1  0  0  0  0
  8 11  1  0  0  0  0
  8 10  1  0  0  0  0
  9  8  1  0  0  0  0
 11 13  1  0  0  0  0
 12 11  1  0  0  0  0
 14  4  1  0  0  0  0
 14 11  1  0  0  0  0
M  END
$$$$
Title Card Required
 OpenBabel06272217483D

 14 13  0  0  0  0  0  0  0  0999 V2000
   -1.0214    0.7806    0.2609 C   0  0  0  0  0  0  0  0  0  0  0  0
   -0.6019    1.5351   -0.4942 H   0  0  0  0  0  0  0  0  0  0  0  0
   -0.8745    0.9738    1.3959 H   0  0  0  0  0  0  0  0  0  0  0  0
   -1.0286   -0.7222   -0.2886 C   0  0  0  0  0  0  0  0  0  0  0  0
   -0.2118   -1.2368    0.2284 H   0  0  0  0  0  0  0  0  0  0  0  0
   -0.7097   -0.5626   -1.3234 H   0  0  0  0  0  0  0  0  0  0  0  0
    1.8566    0.0296    0.0122 Br  0  0  0  0  0 15  0  0  0  0  0  0
   -2.5813    1.1246    0.0103 C   0  0  0  0  0  0  0  0  0  0  0  0
   -2.5990    1.2350   -1.0812 H   0  0  0  0  0  0  0  0  0  0  0  0
   -2.9487    1.8634    0.7491 H   0  0  0  0  0  0  0  0  0  0  0  0
   -3.1971   -0.1714    0.3311 C   0  0  0  0  0  0  0  0  0  0  0  0
   -4.0264   -0.2824   -0.2576 H   0  0  0  0  0  0  0  0  0  0  0  0
   -3.4716   -0.1023    1.4640 H   0  0  0  0  0  0  0  0  0  0  0  0
   -2.3143   -1.1205   -0.3384 O   0  0  0  0  0  0  0  0  0  0  0  0
  1  3  1  0  0  0  0
  2  1  1  0  0  0  0
  4  5  1  0  0  0  0
  4  1  1  0  0  0  0
  6  4  1  0  0  0  0
  8  1  1  0  0  0  0
  8 11  1  0  0  0  0
  8 10  1  0  0  0  0
  9  8  1  0  0  0  0
 11 13  1  0  0  0  0
 12 11  1  0  0  0  0
 14  4  1  0  0  0  0
 14 11  1  0  0  0  0
M  END
$$$$
Title Card Required
 OpenBabel06272217483D

 14 13  0  0  0  0  0  0  0  0999 V2000
   -1.0312    0.7845    0.2672 C   0  0  0  0  0  0  0  0  0  0  0  0
   -0.5604    1.5292   -0.5086 H   0  0  0  0  0  0  0  0  0  0  0  0
   -0.8673    0.9642    1.3903 H   0  0  0  0  0  0  0  0  0  0  0  0
   -1.0663   -0.7474   -0.2947 C   0  0  0  0  0  0  0  0  0  0  0  0
   -0.2599   -1.2745    0.2130 H   0  0  0  0  0  0  0  0  0  0  0  0
   -0.7690   -0.5969   -1.2868 H   0  0  0  0  0  0  0  0  0  0  0  0
    1.8593    0.0314    0.0126 Br  0  0  0  0  0 15  0  0  0  0  0  0
   -2.5726    1.1333    0.0211 C   0  0  0  0  0  0  0  0  0  0  0  0
   -2.6224    1.2647   -1.1421 H   0  0  0  0  0  0  0  0  0  0  0  0
   -2.9744    1.8884    0.7350 H   0  0  0  0  0  0  0  0  0  0  0  0
   -3.1853   -0.1719    0.3279 C   0  0  0  0  0  0  0  0  0  0  0  0
   -4.0099   -0.3935   -0.2838 H   0  0  0  0  0  0  0  0  0  0  0  0
   -3.4451   -0.0752    1.4960 H   0  0  0  0  0  0  0  0  0  0  0  0
   -2.3029   -1.1126   -0.3418 O   0  0  0  0  0  0  0  0  0  0  0  0
  1  3  1  0  0  0  0
  2  1  1  0  0  0  0
  4  5  1  0  0  0  0
  4  1  1  0  0  0  0
  6  4  1  0  0  0  0
  8  1  1  0  0  0  0
  8 11  1  0  0  0  0
  8 10  1  0  0  0  0
  9  8  1  0  0  0  0
 11 13  1  0  0  0  0
 12 11  1  0  0  0  0
 14  4  1  0  0  0  0
 14 11  1  0  0  0  0
M  END
$$$$
Title Card Required
 OpenBabel06272217483D

 14 13  0  0  0  0  0  0  0  0999 V2000
   -1.0440    0.7902    0.2725 C   0  0  0  0  0  0  0  0  0  0  0  0
   -0.5124    1.5018   -0.4934 H   0  0  0  0  0  0  0  0  0  0  0  0
   -0.8502    0.9483    1.3618 H   0  0  0  0  0  0  0  0  0  0  0  0
   -1.1014   -0.7694   -0.2996 C   0  0  0  0  0  0  0  0  0  0  0  0
   -0.3169   -1.3269    0.2027 H   0  0  0  0  0  0  0  0  0  0  0  0
   -0.8142   -0.6352   -1.2747 H   0  0  0  0  0  0  0  0  0  0  0  0
    1.8623    0.0335    0.0130 Br  0  0  0  0  0 15  0  0  0  0  0  0
   -2.5617    1.1427    0.0312 C   0  0  0  0  0  0  0  0  0  0  0  0
   -2.6541    1.3053   -1.1803 H   0  0  0  0  0  0  0  0  0  0  0  0
   -2.9994    1.9191    0.7056 H   0  0  0  0  0  0  0  0  0  0  0  0
   -3.1722   -0.1730    0.3251 C   0  0  0  0  0  0  0  0  0  0  0  0
   -4.0246   -0.5124   -0.3126 H   0  0  0  0  0  0  0  0  0  0  0  0
   -3.4051   -0.0675    1.5045 H   0  0  0  0  0  0  0  0  0  0  0  0
   -2.2957   -1.1057   -0.3434 O   0  0  0  0  0  0  0  0  0  0  0  0
  1  3  1  0  0  0  0
  2  1  1  0  0  0  0
  4  5  1  0  0  0  0
  4  1  1  0  0  0  0
  6  4  1  0  0  0  0
  8  1  1  0  0  0  0
  8 11  1  0  0  0  0
  8 10  1  0  0  0  0
  9  8  1  0  0  0  0
 11 13  1  0  0  0  0
 12 11  1  0  0  0  0
 14  4  1  0  0  0  0
 14 11  1  0  0  0  0
M  END
$$$$
Title Card Required
 OpenBabel06272217483D

 14 13  0  0  0  0  0  0  0  0999 V2000
   -1.0595    0.7975    0.2753 C   0  0  0  0  0  0  0  0  0  0  0  0
   -0.4624    1.4494   -0.4429 H   0  0  0  0  0  0  0  0  0  0  0  0
   -0.8210    0.9268    1.3188 H   0  0  0  0  0  0  0  0  0  0  0  0
   -1.1285   -0.7858   -0.3020 C   0  0  0  0  0  0  0  0  0  0  0  0
   -0.3799   -1.3944    0.2010 H   0  0  0  0  0  0  0  0  0  0  0  0
   -0.8322   -0.6737   -1.3071 H   0  0  0  0  0  0  0  0  0  0  0  0
    1.8658    0.0356    0.0134 Br  0  0  0  0  0 15  0  0  0  0  0  0
   -2.5492    1.1533    0.0385 C   0  0  0  0  0  0  0  0  0  0  0  0
   -2.6900    1.3534   -1.1745 H   0  0  0  0  0  0  0  0  0  0  0  0
   -3.0206    1.9520    0.6605 H   0  0  0  0  0  0  0  0  0  0  0  0
   -3.1604   -0.1757    0.3217 C   0  0  0  0  0  0  0  0  0  0  0  0
   -4.0543   -0.6228   -0.3230 H   0  0  0  0  0  0  0  0  0  0  0  0
   -3.3507   -0.0860    1.4824 H   0  0  0  0  0  0  0  0  0  0  0  0
   -2.2972   -1.1011   -0.3426 O   0  0  0  0  0  0  0  0  0  0  0  0
  1  3  1  0  0  0  0
  2  1  1  0  0  0  0
  4  5  1  0  0  0  0
  4  1  1  0  0  0  0
  6  4  1  0  0  0  0
  8  1  1  0  0  0  0
  8 11  1  0  0  0  0
  8 10  1  0  0  0  0
  9  8  1  0  0  0  0
 11 13  1  0  0  0  0
 12 11  1  0  0  0  0
 14  4  1  0  0  0  0
 14 11  1  0  0  0  0
M  END
$$$$
Title Card Required
 OpenBabel06272217483D

 14 13  0  0  0  0  0  0  0  0999 V2000
   -1.0761    0.8043    0.2744 C   0  0  0  0  0  0  0  0  0  0  0  0
   -0.4149    1.3825   -0.3694 H   0  0  0  0  0  0  0  0  0  0  0  0
   -0.7810    0.9033    1.2837 H   0  0  0  0  0  0  0  0  0  0  0  0
   -1.1405   -0.7941   -0.3028 C   0  0  0  0  0  0  0  0  0  0  0  0
   -0.4409   -1.4673    0.2089 H   0  0  0  0  0  0  0  0  0  0  0  0
   -0.8214   -0.7098   -1.3679 H   0  0  0  0  0  0  0  0  0  0  0  0
    1.8695    0.0378    0.0138 Br  0  0  0  0  0 15  0  0  0  0  0  0
   -2.5374    1.1646    0.0413 C   0  0  0  0  0  0  0  0  0  0  0  0
   -2.7217    1.4008   -1.1208 H   0  0  0  0  0  0  0  0  0  0  0  0
   -3.0341    1.9811    0.6080 H   0  0  0  0  0  0  0  0  0  0  0  0
   -3.1527   -0.1805    0.3167 C   0  0  0  0  0  0  0  0  0  0  0  0
   -4.0800   -0.6985   -0.2995 H   0  0  0  0  0  0  0  0  0  0  0  0
   -3.2886   -0.1306    1.4366 H   0  0  0  0  0  0  0  0  0  0  0  0
   -2.3102   -1.1001   -0.3395 O   0  0  0  0  0  0  0  0  0  0  0  0
  1  3  1  0  0  0  0
  2  1  1  0  0  0  0
  4  5  1  0  0  0  0
  4  1  1  0  0  0  0
  6  4  1  0  0  0  0
  8  1  1  0  0  0  0
  8 11  1  0  0  0  0
  8 10  1  0  0  0  0
  9  8  1  0  0  0  0
 11 13  1  0  0  0  0
 12 11  1  0  0  0  0
 14  4  1  0  0  0  0
 14 11  1  0  0  0  0
M  END
$$$$
Title Card Required
 OpenBabel06272217483D

 14 13  0  0  0  0  0  0  0  0999 V2000
   -1.0925    0.8089    0.2705 C   0  0  0  0  0  0  0  0  0  0  0  0
   -0.3664    1.3196   -0.2970 H   0  0  0  0  0  0  0  0  0  0  0  0
   -0.7353    0.8797    1.2708 H   0  0  0  0  0  0  0  0  0  0  0  0
   -1.1377   -0.7953   -0.3041 C   0  0  0  0  0  0  0  0  0  0  0  0
   -0.4949   -1.5338    0.2221 H   0  0  0  0  0  0  0  0  0  0  0  0
   -0.7945   -0.7435   -1.4220 H   0  0  0  0  0  0  0  0  0  0  0  0
    1.8731    0.0398    0.0143 Br  0  0  0  0  0 15  0  0  0  0  0  0
   -2.5278    1.1758    0.0399 C   0  0  0  0  0  0  0  0  0  0  0  0
   -2.7440    1.4416   -1.0385 H   0  0  0  0  0  0  0  0  0  0  0  0
   -3.0396    2.0041    0.5593 H   0  0  0  0  0  0  0  0  0  0  0  0
   -3.1498   -0.1873    0.3097 C   0  0  0  0  0  0  0  0  0  0  0  0
   -4.0950   -0.7305   -0.2453 H   0  0  0  0  0  0  0  0  0  0  0  0
   -3.2270   -0.1934    1.3879 H   0  0  0  0  0  0  0  0  0  0  0  0
   -2.3325   -1.1022   -0.3350 O   0  0  0  0  0  0  0  0  0  0  0  0
  1  3  1  0  0  0  0
  2  1  1  0  0  0  0
  4  5  1  0  0  0  0
  4  1  1  0  0  0  0
  6  4  1  0  0  0  0
  8  1  1  0  0  0  0
  8 11  1  0  0  0  0
  8 10  1  0  0  0  0
  9  8  1  0  0  0  0
 11 13  1  0  0  0  0
 12 11  1  0  0  0  0
 14  4  1  0  0  0  0
 14 11  1  0  0  0  0
M  END
$$$$
Title Card Required
 OpenBabel06272217483D

 14 13  0  0  0  0  0  0  0  0999 V2000
   -1.1083    0.8104    0.2655 C   0  0  0  0  0  0  0  0  0  0  0  0
   -0.3099    1.2707   -0.2400 H   0  0  0  0  0  0  0  0  0  0  0  0
   -0.6902    0.8550    1.2755 H   0  0  0  0  0  0  0  0  0  0  0  0
   -1.1244   -0.7917   -0.3068 C   0  0  0  0  0  0  0  0  0  0  0  0
   -0.5426   -1.5876    0.2363 H   0  0  0  0  0  0  0  0  0  0  0  0
   -0.7622   -0.7758   -1.4518 H   0  0  0  0  0  0  0  0  0  0  0  0
    1.8766    0.0417    0.0146 Br  0  0  0  0  0 15  0  0  0  0  0  0
   -2.5207    1.1867    0.0364 C   0  0  0  0  0  0  0  0  0  0  0  0
   -2.7579    1.4770   -0.9538 H   0  0  0  0  0  0  0  0  0  0  0  0
   -3.0389    2.0228    0.5212 H   0  0  0  0  0  0  0  0  0  0  0  0
   -3.1509   -0.1954    0.3005 C   0  0  0  0  0  0  0  0  0  0  0  0
   -4.1019   -0.7239   -0.1693 H   0  0  0  0  0  0  0  0  0  0  0  0
   -3.1687   -0.2674    1.3549 H   0  0  0  0  0  0  0  0  0  0  0  0
   -2.3607   -1.1065   -0.3300 O   0  0  0  0  0  0  0  0  0  0  0  0
  1  3  1  0  0  0  0
  2  1  1  0  0  0  0
  4  5  1  0  0  0  0
  4  1  1  0  0  0  0
  6  4  1  0  0  0  0
  8  1  1  0  0  0  0
  8 11  1  0  0  0  0
  8 10  1  0  0  0  0
  9  8  1  0  0  0  0
 11 13  1  0  0  0  0
 12 11  1  0  0  0  0
 14  4  1  0  0  0  0
 14 11  1  0  0  0  0
M  END
$$$$
Title Card Required
 OpenBabel06272217483D

 14 13  0  0  0  0  0  0  0  0999 V2000
   -1.1227    0.8088    0.2607 C   0  0  0  0  0  0  0  0  0  0  0  0
   -0.2453    1.2362   -0.2004 H   0  0  0  0  0  0  0  0  0  0  0  0
   -0.6526    0.8278    1.2865 H   0  0  0  0  0  0  0  0  0  0  0  0
   -1.1045   -0.7854   -0.3112 C   0  0  0  0  0  0  0  0  0  0  0  0
   -0.5854   -1.6254    0.2489 H   0  0  0  0  0  0  0  0  0  0  0  0
   -0.7294   -0.8068   -1.4525 H   0  0  0  0  0  0  0  0  0  0  0  0
    1.8803    0.0435    0.0150 Br  0  0  0  0  0 15  0  0  0  0  0  0
   -2.5156    1.1970    0.0328 C   0  0  0  0  0  0  0  0  0  0  0  0
   -2.7678    1.5122   -0.8952 H   0  0  0  0  0  0  0  0  0  0  0  0
   -3.0332    2.0394    0.4983 H   0  0  0  0  0  0  0  0  0  0  0  0
   -3.1552   -0.2042    0.2894 C   0  0  0  0  0  0  0  0  0  0  0  0
   -4.1071   -0.6844   -0.0785 H   0  0  0  0  0  0  0  0  0  0  0  0
   -3.1129   -0.3487    1.3460 H   0  0  0  0  0  0  0  0  0  0  0  0
   -2.3919   -1.1127   -0.3254 O   0  0  0  0  0  0  0  0  0  0  0  0
  1  3  1  0  0  0  0
  2  1  1  0  0  0  0
  4  5  1  0  0  0  0
  4  1  1  0  0  0  0
  6  4  1  0  0  0  0
  8  1  1  0  0  0  0
  8 11  1  0  0  0  0
  8 10  1  0  0  0  0
  9  8  1  0  0  0  0
 11 13  1  0  0  0  0
 12 11  1  0  0  0  0
 14  4  1  0  0  0  0
 14 11  1  0  0  0  0
M  END
$$$$
Title Card Required
 OpenBabel06272217483D

 14 13  0  0  0  0  0  0  0  0999 V2000
   -1.1340    0.8044    0.2564 C   0  0  0  0  0  0  0  0  0  0  0  0
   -0.1822    1.2123   -0.1742 H   0  0  0  0  0  0  0  0  0  0  0  0
   -0.6298    0.7976    1.2944 H   0  0  0  0  0  0  0  0  0  0  0  0
   -1.0810   -0.7775   -0.3169 C   0  0  0  0  0  0  0  0  0  0  0  0
   -0.6229   -1.6443    0.2587 H   0  0  0  0  0  0  0  0  0  0  0  0
   -0.6987   -0.8359   -1.4240 H   0  0  0  0  0  0  0  0  0  0  0  0
    1.8840    0.0454    0.0154 Br  0  0  0  0  0 15  0  0  0  0  0  0
   -2.5126    1.2060    0.0312 C   0  0  0  0  0  0  0  0  0  0  0  0
   -2.7782    1.5525   -0.8868 H   0  0  0  0  0  0  0  0  0  0  0  0
   -3.0230    2.0554    0.4948 H   0  0  0  0  0  0  0  0  0  0  0  0
   -3.1620   -0.2128    0.2782 C   0  0  0  0  0  0  0  0  0  0  0  0
   -4.1212   -0.6189    0.0192 H   0  0  0  0  0  0  0  0  0  0  0  0
   -3.0592   -0.4314    1.3580 H   0  0  0  0  0  0  0  0  0  0  0  0
   -2.4243   -1.1207   -0.3221 O   0  0  0  0  0  0  0  0  0  0  0  0
  1  3  1  0  0  0  0
  2  1  1  0  0  0  0
  4  1  1  0  0  0  0
  4  5  1  0  0  0  0
  6  4  1  0  0  0  0
  8  1  1  0  0  0  0
  8 11  1  0  0  0  0
  8 10  1  0  0  0  0
  9  8  1  0  0  0  0
 11 13  1  0  0  0  0
 12 11  1  0  0  0  0
 14  4  1  0  0  0  0
 14 11  1  0  0  0  0
M  END
$$$$
Title Card Required
 OpenBabel06272217483D

 14 13  0  0  0  0  0  0  0  0999 V2000
   -1.1400    0.7974    0.2528 C   0  0  0  0  0  0  0  0  0  0  0  0
   -0.1338    1.1953   -0.1569 H   0  0  0  0  0  0  0  0  0  0  0  0
   -0.6272    0.7655    1.2936 H   0  0  0  0  0  0  0  0  0  0  0  0
   -1.0566   -0.7689   -0.3231 C   0  0  0  0  0  0  0  0  0  0  0  0
   -0.6531   -1.6425    0.2660 H   0  0  0  0  0  0  0  0  0  0  0  0
   -0.6710   -0.8614   -1.3722 H   0  0  0  0  0  0  0  0  0  0  0  0
    1.8879    0.0472    0.0158 Br  0  0  0  0  0 15  0  0  0  0  0  0
   -2.5120    1.2136    0.0316 C   0  0  0  0  0  0  0  0  0  0  0  0
   -2.7886    1.5962   -0.9277 H   0  0  0  0  0  0  0  0  0  0  0  0
   -3.0080    2.0697    0.5124 H   0  0  0  0  0  0  0  0  0  0  0  0
   -3.1700   -0.2203    0.2695 C   0  0  0  0  0  0  0  0  0  0  0  0
   -4.1580   -0.5367    0.1143 H   0  0  0  0  0  0  0  0  0  0  0  0
   -3.0099   -0.5062    1.3793 H   0  0  0  0  0  0  0  0  0  0  0  0
   -2.4558   -1.1305   -0.3210 O   0  0  0  0  0  0  0  0  0  0  0  0
  1  3  1  0  0  0  0
  2  1  1  0  0  0  0
  4 14  1  0  0  0  0
  4  1  1  0  0  0  0
  4  5  1  0  0  0  0
  6  4  1  0  0  0  0
  8  1  1  0  0  0  0
  8 11  1  0  0  0  0
  8 10  1  0  0  0  0
  9  8  1  0  0  0  0
 11 13  1  0  0  0  0
 12 11  1  0  0  0  0
 14 11  1  0  0  0  0
M  END
$$$$
Title Card Required
 OpenBabel06272217483D

 14 13  0  0  0  0  0  0  0  0999 V2000
   -1.1397    0.7879    0.2497 C   0  0  0  0  0  0  0  0  0  0  0  0
   -0.1094    1.1831   -0.1455 H   0  0  0  0  0  0  0  0  0  0  0  0
   -0.6468    0.7326    1.2829 H   0  0  0  0  0  0  0  0  0  0  0  0
   -1.0336   -0.7601   -0.3287 C   0  0  0  0  0  0  0  0  0  0  0  0
   -0.6743   -1.6217    0.2730 H   0  0  0  0  0  0  0  0  0  0  0  0
   -0.6440   -0.8827   -1.3118 H   0  0  0  0  0  0  0  0  0  0  0  0
    1.8920    0.0490    0.0162 Br  0  0  0  0  0 15  0  0  0  0  0  0
   -2.5145    1.2202    0.0323 C   0  0  0  0  0  0  0  0  0  0  0  0
   -2.7938    1.6349   -0.9936 H   0  0  0  0  0  0  0  0  0  0  0  0
   -2.9872    2.0799    0.5491 H   0  0  0  0  0  0  0  0  0  0  0  0
   -3.1781   -0.2258    0.2653 C   0  0  0  0  0  0  0  0  0  0  0  0
   -4.2239   -0.4446    0.2019 H   0  0  0  0  0  0  0  0  0  0  0  0
   -2.9679   -0.5644    1.3988 H   0  0  0  0  0  0  0  0  0  0  0  0
   -2.4856   -1.1422   -0.3231 O   0  0  0  0  0  0  0  0  0  0  0  0
  1  3  1  0  0  0  0
  2  1  1  0  0  0  0
  4 14  1  0  0  0  0
  4  1  1  0  0  0  0
  4  5  1  0  0  0  0
  6  4  1  0  0  0  0
  8  1  1  0  0  0  0
  8 11  1  0  0  0  0
  8 10  1  0  0  0  0
  9  8  1  0  0  0  0
 11 13  1  0  0  0  0
 12 11  1  0  0  0  0
 14 11  1  0  0  0  0
M  END
$$$$
Title Card Required
 OpenBabel06272217483D

 14 13  0  0  0  0  0  0  0  0999 V2000
   -1.1327    0.7761    0.2466 C   0  0  0  0  0  0  0  0  0  0  0  0
   -0.1127    1.1754   -0.1390 H   0  0  0  0  0  0  0  0  0  0  0  0
   -0.6880    0.6996    1.2658 H   0  0  0  0  0  0  0  0  0  0  0  0
   -1.0137   -0.7506   -0.3318 C   0  0  0  0  0  0  0  0  0  0  0  0
   -0.6842   -1.5856    0.2839 H   0  0  0  0  0  0  0  0  0  0  0  0
   -0.6115   -0.9011   -1.2648 H   0  0  0  0  0  0  0  0  0  0  0  0
    1.8963    0.0508    0.0166 Br  0  0  0  0  0 15  0  0  0  0  0  0
   -2.5202    1.2266    0.0317 C   0  0  0  0  0  0  0  0  0  0  0  0
   -2.7886    1.6603   -1.0580 H   0  0  0  0  0  0  0  0  0  0  0  0
   -2.9591    2.0825    0.6008 H   0  0  0  0  0  0  0  0  0  0  0  0
   -3.1868   -0.2294    0.2669 C   0  0  0  0  0  0  0  0  0  0  0  0
   -4.3076   -0.3440    0.2809 H   0  0  0  0  0  0  0  0  0  0  0  0
   -2.9358   -0.5994    1.4103 H   0  0  0  0  0  0  0  0  0  0  0  0
   -2.5136   -1.1560   -0.3291 O   0  0  0  0  0  0  0  0  0  0  0  0
  1  3  1  0  0  0  0
  2  1  1  0  0  0  0
  4 14  1  0  0  0  0
  4  1  1  0  0  0  0
  4  5  1  0  0  0  0
  6  4  1  0  0  0  0
  8  1  1  0  0  0  0
  8 11  1  0  0  0  0
  8 10  1  0  0  0  0
  9  8  1  0  0  0  0
 11 12  1  0  0  0  0
 11 13  1  0  0  0  0
 14 11  1  0  0  0  0
M  END
$$$$
Title Card Required
 OpenBabel06272217483D

 14 13  0  0  0  0  0  0  0  0999 V2000
   -1.1200    0.7618    0.2426 C   0  0  0  0  0  0  0  0  0  0  0  0
   -0.1430    1.1742   -0.1378 H   0  0  0  0  0  0  0  0  0  0  0  0
   -0.7465    0.6672    1.2510 H   0  0  0  0  0  0  0  0  0  0  0  0
   -0.9984   -0.7401   -0.3312 C   0  0  0  0  0  0  0  0  0  0  0  0
   -0.6809   -1.5409    0.3045 H   0  0  0  0  0  0  0  0  0  0  0  0
   -0.5674   -0.9184   -1.2521 H   0  0  0  0  0  0  0  0  0  0  0  0
    1.9008    0.0527    0.0171 Br  0  0  0  0  0 15  0  0  0  0  0  0
   -2.5289    1.2330    0.0289 C   0  0  0  0  0  0  0  0  0  0  0  0
   -2.7714    1.6668   -1.1009 H   0  0  0  0  0  0  0  0  0  0  0  0
   -2.9234    2.0741    0.6614 H   0  0  0  0  0  0  0  0  0  0  0  0
   -3.1972   -0.2308    0.2750 C   0  0  0  0  0  0  0  0  0  0  0  0
   -4.3855   -0.2385    0.3488 H   0  0  0  0  0  0  0  0  0  0  0  0
   -2.9167   -0.6062    1.4104 H   0  0  0  0  0  0  0  0  0  0  0  0
   -2.5395   -1.1716   -0.3393 O   0  0  0  0  0  0  0  0  0  0  0  0
  1  3  1  0  0  0  0
  2  1  1  0  0  0  0
  4  1  1  0  0  0  0
  4  5  1  0  0  0  0
  6  4  1  0  0  0  0
  8  1  1  0  0  0  0
  8 11  1  0  0  0  0
  8 10  1  0  0  0  0
  9  8  1  0  0  0  0
 11 12  1  0  0  0  0
 11 13  1  0  0  0  0
 14  4  1  0  0  0  0
 14 11  1  0  0  0  0
M  END
$$$$
Title Card Required
 OpenBabel06272217483D

 14 13  0  0  0  0  0  0  0  0999 V2000
   -1.1042    0.7460    0.2372 C   0  0  0  0  0  0  0  0  0  0  0  0
   -0.1900    1.1827   -0.1434 H   0  0  0  0  0  0  0  0  0  0  0  0
   -0.8131    0.6364    1.2507 H   0  0  0  0  0  0  0  0  0  0  0  0
   -0.9886   -0.7289   -0.3274 C   0  0  0  0  0  0  0  0  0  0  0  0
   -0.6642   -1.4961    0.3381 H   0  0  0  0  0  0  0  0  0  0  0  0
   -0.5156   -0.9337   -1.2723 H   0  0  0  0  0  0  0  0  0  0  0  0
    1.9054    0.0545    0.0175 Br  0  0  0  0  0 15  0  0  0  0  0  0
   -2.5392    1.2387    0.0238 C   0  0  0  0  0  0  0  0  0  0  0  0
   -2.7447    1.6541   -1.1112 H   0  0  0  0  0  0  0  0  0  0  0  0
   -2.8825    2.0538    0.7220 H   0  0  0  0  0  0  0  0  0  0  0  0
   -3.2097   -0.2298    0.2892 C   0  0  0  0  0  0  0  0  0  0  0  0
   -4.4359   -0.1381    0.4003 H   0  0  0  0  0  0  0  0  0  0  0  0
   -2.9125   -0.5841    1.3984 H   0  0  0  0  0  0  0  0  0  0  0  0
   -2.5628   -1.1881   -0.3532 O   0  0  0  0  0  0  0  0  0  0  0  0
  1  3  1  0  0  0  0
  2  1  1  0  0  0  0
  4  1  1  0  0  0  0
  4  5  1  0  0  0  0
  6  4  1  0  0  0  0
  8  1  1  0  0  0  0
  8 11  1  0  0  0  0
  8 10  1  0  0  0  0
  9  8  1  0  0  0  0
 11 12  1  0  0  0  0
 11 13  1  0  0  0  0
 14  4  1  0  0  0  0
 14 11  1  0  0  0  0
M  END
$$$$
Title Card Required
 OpenBabel06272217483D

 14 13  0  0  0  0  0  0  0  0999 V2000
   -1.0882    0.7293    0.2302 C   0  0  0  0  0  0  0  0  0  0  0  0
   -0.2376    1.2047   -0.1574 H   0  0  0  0  0  0  0  0  0  0  0  0
   -0.8803    0.6081    1.2700 H   0  0  0  0  0  0  0  0  0  0  0  0
   -0.9833   -0.7177   -0.3226 C   0  0  0  0  0  0  0  0  0  0  0  0
   -0.6372   -1.4549    0.3823 H   0  0  0  0  0  0  0  0  0  0  0  0
   -0.4670   -0.9440   -1.3031 H   0  0  0  0  0  0  0  0  0  0  0  0
    1.9099    0.0561    0.0179 Br  0  0  0  0  0 15  0  0  0  0  0  0
   -2.5498    1.2431    0.0173 C   0  0  0  0  0  0  0  0  0  0  0  0
   -2.7133    1.6267   -1.0899 H   0  0  0  0  0  0  0  0  0  0  0  0
   -2.8395    2.0240    0.7760 H   0  0  0  0  0  0  0  0  0  0  0  0
   -3.2236   -0.2265    0.3079 C   0  0  0  0  0  0  0  0  0  0  0  0
   -4.4521   -0.0511    0.4338 H   0  0  0  0  0  0  0  0  0  0  0  0
   -2.9215   -0.5386    1.3775 H   0  0  0  0  0  0  0  0  0  0  0  0
   -2.5835   -1.2042   -0.3694 O   0  0  0  0  0  0  0  0  0  0  0  0
  1  3  1  0  0  0  0
  2  1  1  0  0  0  0
  4  1  1  0  0  0  0
  4  5  1  0  0  0  0
  6  4  1  0  0  0  0
  8  1  1  0  0  0  0
  8 11  1  0  0  0  0
  8 10  1  0  0  0  0
  9  8  1  0  0  0  0
 11 12  1  0  0  0  0
 11 13  1  0  0  0  0
 14  4  1  0  0  0  0
 14 11  1  0  0  0  0
M  END
$$$$
Title Card Required
 OpenBabel06272217483D

 14 13  0  0  0  0  0  0  0  0999 V2000
   -1.0739    0.7116    0.2226 C   0  0  0  0  0  0  0  0  0  0  0  0
   -0.2735    1.2432   -0.1805 H   0  0  0  0  0  0  0  0  0  0  0  0
   -0.9453    0.5835    1.3025 H   0  0  0  0  0  0  0  0  0  0  0  0
   -0.9811   -0.7075   -0.3184 C   0  0  0  0  0  0  0  0  0  0  0  0
   -0.6042   -1.4155    0.4313 H   0  0  0  0  0  0  0  0  0  0  0  0
   -0.4305   -0.9466   -1.3248 H   0  0  0  0  0  0  0  0  0  0  0  0
    1.9145    0.0577    0.0183 Br  0  0  0  0  0 15  0  0  0  0  0  0
   -2.5596    1.2455    0.0102 C   0  0  0  0  0  0  0  0  0  0  0  0
   -2.6819    1.5907   -1.0455 H   0  0  0  0  0  0  0  0  0  0  0  0
   -2.7964    1.9877    0.8205 H   0  0  0  0  0  0  0  0  0  0  0  0
   -3.2386   -0.2209    0.3295 C   0  0  0  0  0  0  0  0  0  0  0  0
   -4.4367    0.0188    0.4504 H   0  0  0  0  0  0  0  0  0  0  0  0
   -2.9401   -0.4768    1.3548 H   0  0  0  0  0  0  0  0  0  0  0  0
   -2.6023   -1.2196   -0.3872 O   0  0  0  0  0  0  0  0  0  0  0  0
  1  3  1  0  0  0  0
  2  1  1  0  0  0  0
  4  1  1  0  0  0  0
  4  5  1  0  0  0  0
  6  4  1  0  0  0  0
  8  1  1  0  0  0  0
  8 11  1  0  0  0  0
  8 10  1  0  0  0  0
  9  8  1  0  0  0  0
 11 12  1  0  0  0  0
 11 13  1  0  0  0  0
 14  4  1  0  0  0  0
 14 11  1  0  0  0  0
M  END
$$$$
Title Card Required
 OpenBabel06272217483D

 14 13  0  0  0  0  0  0  0  0999 V2000
   -1.0619    0.6931    0.2151 C   0  0  0  0  0  0  0  0  0  0  0  0
   -0.2950    1.2985   -0.2109 H   0  0  0  0  0  0  0  0  0  0  0  0
   -1.0074    0.5641    1.3367 H   0  0  0  0  0  0  0  0  0  0  0  0
   -0.9809   -0.6991   -0.3152 C   0  0  0  0  0  0  0  0  0  0  0  0
   -0.5688   -1.3737    0.4783 H   0  0  0  0  0  0  0  0  0  0  0  0
   -0.4105   -0.9403   -1.3273 H   0  0  0  0  0  0  0  0  0  0  0  0
    1.9193    0.0593    0.0187 Br  0  0  0  0  0 15  0  0  0  0  0  0
   -2.5683    1.2451    0.0040 C   0  0  0  0  0  0  0  0  0  0  0  0
   -2.6547    1.5534   -0.9935 H   0  0  0  0  0  0  0  0  0  0  0  0
   -2.7538    1.9470    0.8547 H   0  0  0  0  0  0  0  0  0  0  0  0
   -3.2547   -0.2126    0.3524 C   0  0  0  0  0  0  0  0  0  0  0  0
   -4.3945    0.0707    0.4515 H   0  0  0  0  0  0  0  0  0  0  0  0
   -2.9630   -0.4048    1.3424 H   0  0  0  0  0  0  0  0  0  0  0  0
   -2.6201   -1.2340   -0.4062 O   0  0  0  0  0  0  0  0  0  0  0  0
  1  3  1  0  0  0  0
  2  1  1  0  0  0  0
  4  1  1  0  0  0  0
  4  5  1  0  0  0  0
  6  4  1  0  0  0  0
  8  1  1  0  0  0  0
  8 11  1  0  0  0  0
  8 10  1  0  0  0  0
  9  8  1  0  0  0  0
 11 12  1  0  0  0  0
 11 13  1  0  0  0  0
 14  4  1  0  0  0  0
 14 11  1  0  0  0  0
M  END
$$$$
Title Card Required
 OpenBabel06272217483D

 14 13  0  0  0  0  0  0  0  0999 V2000
   -1.0521    0.6739    0.2082 C   0  0  0  0  0  0  0  0  0  0  0  0
   -0.3089    1.3656   -0.2432 H   0  0  0  0  0  0  0  0  0  0  0  0
   -1.0653    0.5522    1.3603 H   0  0  0  0  0  0  0  0  0  0  0  0
   -0.9822   -0.6933   -0.3130 C   0  0  0  0  0  0  0  0  0  0  0  0
   -0.5341   -1.3253    0.5167 H   0  0  0  0  0  0  0  0  0  0  0  0
   -0.4104   -0.9240   -1.3046 H   0  0  0  0  0  0  0  0  0  0  0  0
    1.9245    0.0610    0.0191 Br  0  0  0  0  0 15  0  0  0  0  0  0
   -2.5752    1.2401    0.0011 C   0  0  0  0  0  0  0  0  0  0  0  0
   -2.6366    1.5250   -0.9601 H   0  0  0  0  0  0  0  0  0  0  0  0
   -2.7117    1.9039    0.8778 H   0  0  0  0  0  0  0  0  0  0  0  0
   -3.2723   -0.2007    0.3752 C   0  0  0  0  0  0  0  0  0  0  0  0
   -4.3329    0.1033    0.4364 H   0  0  0  0  0  0  0  0  0  0  0  0
   -2.9843   -0.3270    1.3584 H   0  0  0  0  0  0  0  0  0  0  0  0
   -2.6380   -1.2475   -0.4266 O   0  0  0  0  0  0  0  0  0  0  0  0
  1  3  1  0  0  0  0
  2  1  1  0  0  0  0
  4  1  1  0  0  0  0
  4  5  1  0  0  0  0
  6  4  1  0  0  0  0
  8  1  1  0  0  0  0
  8 11  1  0  0  0  0
  8 10  1  0  0  0  0
  9  8  1  0  0  0  0
 11 12  1  0  0  0  0
 11 13  1  0  0  0  0
 14  4  1  0  0  0  0
 14 11  1  0  0  0  0
M  END
$$$$
Title Card Required
 OpenBabel06272217483D

 14 13  0  0  0  0  0  0  0  0999 V2000
   -1.0448    0.6562    0.2025 C   0  0  0  0  0  0  0  0  0  0  0  0
   -0.3269    1.4304   -0.2666 H   0  0  0  0  0  0  0  0  0  0  0  0
   -1.1125    0.5513    1.3602 H   0  0  0  0  0  0  0  0  0  0  0  0
   -0.9847   -0.6917   -0.3115 C   0  0  0  0  0  0  0  0  0  0  0  0
   -0.5048   -1.2701    0.5375 H   0  0  0  0  0  0  0  0  0  0  0  0
   -0.4326   -0.8981   -1.2564 H   0  0  0  0  0  0  0  0  0  0  0  0
    1.9304    0.0629    0.0196 Br  0  0  0  0  0 15  0  0  0  0  0  0
   -2.5795    1.2280    0.0044 C   0  0  0  0  0  0  0  0  0  0  0  0
   -2.6336    1.5179   -0.9775 H   0  0  0  0  0  0  0  0  0  0  0  0
   -2.6723    1.8643    0.8880 H   0  0  0  0  0  0  0  0  0  0  0  0
   -3.2894   -0.1849    0.3959 C   0  0  0  0  0  0  0  0  0  0  0  0
   -4.2762    0.1156    0.4035 H   0  0  0  0  0  0  0  0  0  0  0  0
   -2.9985   -0.2495    1.4172 H   0  0  0  0  0  0  0  0  0  0  0  0
   -2.6562   -1.2590   -0.4478 O   0  0  0  0  0  0  0  0  0  0  0  0
  1  3  1  0  0  0  0
  2  1  1  0  0  0  0
  4  1  1  0  0  0  0
  4  5  1  0  0  0  0
  6  4  1  0  0  0  0
  8  1  1  0  0  0  0
  8 11  1  0  0  0  0
  8 10  1  0  0  0  0
  9  8  1  0  0  0  0
 11 12  1  0  0  0  0
 11 13  1  0  0  0  0
 14  4  1  0  0  0  0
 14 11  1  0  0  0  0
M  END
$$$$
Title Card Required
 OpenBabel06272217483D

 14 13  0  0  0  0  0  0  0  0999 V2000
   -1.0409    0.6435    0.1981 C   0  0  0  0  0  0  0  0  0  0  0  0
   -0.3592    1.4726   -0.2693 H   0  0  0  0  0  0  0  0  0  0  0  0
   -1.1387    0.5638    1.3294 H   0  0  0  0  0  0  0  0  0  0  0  0
   -0.9894   -0.6952   -0.3095 C   0  0  0  0  0  0  0  0  0  0  0  0
   -0.4858   -1.2161    0.5350 H   0  0  0  0  0  0  0  0  0  0  0  0
   -0.4704   -0.8683   -1.2006 H   0  0  0  0  0  0  0  0  0  0  0  0
    1.9369    0.0648    0.0201 Br  0  0  0  0  0 15  0  0  0  0  0  0
   -2.5801    1.2075    0.0135 C   0  0  0  0  0  0  0  0  0  0  0  0
   -2.6491    1.5335   -1.0402 H   0  0  0  0  0  0  0  0  0  0  0  0
   -2.6401    1.8389    0.8869 H   0  0  0  0  0  0  0  0  0  0  0  0
   -3.3010   -0.1664    0.4136 C   0  0  0  0  0  0  0  0  0  0  0  0
   -4.2729    0.1122    0.3518 H   0  0  0  0  0  0  0  0  0  0  0  0
   -3.0089   -0.1794    1.5046 H   0  0  0  0  0  0  0  0  0  0  0  0
   -2.6742   -1.2671   -0.4681 O   0  0  0  0  0  0  0  0  0  0  0  0
  1  3  1  0  0  0  0
  2  1  1  0  0  0  0
  4  1  1  0  0  0  0
  4  5  1  0  0  0  0
  6  4  1  0  0  0  0
  8  1  1  0  0  0  0
  8 11  1  0  0  0  0
  8 10  1  0  0  0  0
  9  8  1  0  0  0  0
 11 13  1  0  0  0  0
 12 11  1  0  0  0  0
 14  4  1  0  0  0  0
 14 11  1  0  0  0  0
M  END
$$$$
Title Card Required
 OpenBabel06272217483D

 14 13  0  0  0  0  0  0  0  0999 V2000
   -1.0418    0.6384    0.1946 C   0  0  0  0  0  0  0  0  0  0  0  0
   -0.4073    1.4781   -0.2465 H   0  0  0  0  0  0  0  0  0  0  0  0
   -1.1349    0.5889    1.2771 H   0  0  0  0  0  0  0  0  0  0  0  0
   -0.9981   -0.7035   -0.3049 C   0  0  0  0  0  0  0  0  0  0  0  0
   -0.4775   -1.1791    0.5138 H   0  0  0  0  0  0  0  0  0  0  0  0
   -0.5024   -0.8458   -1.1792 H   0  0  0  0  0  0  0  0  0  0  0  0
    1.9438    0.0667    0.0206 Br  0  0  0  0  0 15  0  0  0  0  0  0
   -2.5767    1.1796    0.0235 C   0  0  0  0  0  0  0  0  0  0  0  0
   -2.6812    1.5570   -1.0971 H   0  0  0  0  0  0  0  0  0  0  0  0
   -2.6199    1.8385    0.8790 H   0  0  0  0  0  0  0  0  0  0  0  0
   -3.3041   -0.1465    0.4293 C   0  0  0  0  0  0  0  0  0  0  0  0
   -4.3450    0.0947    0.2834 H   0  0  0  0  0  0  0  0  0  0  0  0
   -3.0268   -0.1253    1.5828 H   0  0  0  0  0  0  0  0  0  0  0  0
   -2.6910   -1.2702   -0.4856 O   0  0  0  0  0  0  0  0  0  0  0  0
  1  3  1  0  0  0  0
  2  1  1  0  0  0  0
  4  1  1  0  0  0  0
  4  5  1  0  0  0  0
  6  4  1  0  0  0  0
  8  1  1  0  0  0  0
  8 11  1  0  0  0  0
  8 10  1  0  0  0  0
  9  8  1  0  0  0  0
 11 13  1  0  0  0  0
 12 11  1  0  0  0  0
 14  4  1  0  0  0  0
 14 11  1  0  0  0  0
M  END
$$$$
Title Card Required
 OpenBabel06272217483D

 14 13  0  0  0  0  0  0  0  0999 V2000
   -1.0485    0.6414    0.1906 C   0  0  0  0  0  0  0  0  0  0  0  0
   -0.4585    1.4517   -0.2070 H   0  0  0  0  0  0  0  0  0  0  0  0
   -1.1004    0.6215    1.2344 H   0  0  0  0  0  0  0  0  0  0  0  0
   -1.0119   -0.7151   -0.2977 C   0  0  0  0  0  0  0  0  0  0  0  0
   -0.4741   -1.1768    0.4903 H   0  0  0  0  0  0  0  0  0  0  0  0
   -0.5141   -0.8380   -1.2182 H   0  0  0  0  0  0  0  0  0  0  0  0
    1.9510    0.0687    0.0212 Br  0  0  0  0  0 15  0  0  0  0  0  0
   -2.5700    1.1477    0.0305 C   0  0  0  0  0  0  0  0  0  0  0  0
   -2.7233    1.5709   -1.1053 H   0  0  0  0  0  0  0  0  0  0  0  0
   -2.6143    1.8638    0.8646 H   0  0  0  0  0  0  0  0  0  0  0  0
   -3.3023   -0.1261    0.4428 C   0  0  0  0  0  0  0  0  0  0  0  0
   -4.4397    0.0553    0.2115 H   0  0  0  0  0  0  0  0  0  0  0  0
   -3.0595   -0.0953    1.6210 H   0  0  0  0  0  0  0  0  0  0  0  0
   -2.7054   -1.2676   -0.4984 O   0  0  0  0  0  0  0  0  0  0  0  0
  1  3  1  0  0  0  0
  2  1  1  0  0  0  0
  4  1  1  0  0  0  0
  4  5  1  0  0  0  0
  6  4  1  0  0  0  0
  8  1  1  0  0  0  0
  8 11  1  0  0  0  0
  8 10  1  0  0  0  0
  9  8  1  0  0  0  0
 11 13  1  0  0  0  0
 12 11  1  0  0  0  0
 14  4  1  0  0  0  0
 14 11  1  0  0  0  0
M  END
$$$$
Title Card Required
 OpenBabel06272217483D

 14 13  0  0  0  0  0  0  0  0999 V2000
   -1.0620    0.6492    0.1852 C   0  0  0  0  0  0  0  0  0  0  0  0
   -0.4896    1.4207   -0.1720 H   0  0  0  0  0  0  0  0  0  0  0  0
   -1.0411    0.6558    1.2311 H   0  0  0  0  0  0  0  0  0  0  0  0
   -1.0296   -0.7287   -0.2917 C   0  0  0  0  0  0  0  0  0  0  0  0
   -0.4692   -1.2150    0.4769 H   0  0  0  0  0  0  0  0  0  0  0  0
   -0.5199   -0.8407   -1.2860 H   0  0  0  0  0  0  0  0  0  0  0  0
    1.9581    0.0705    0.0217 Br  0  0  0  0  0 15  0  0  0  0  0  0
   -2.5609    1.1160    0.0340 C   0  0  0  0  0  0  0  0  0  0  0  0
   -2.7676    1.5659   -1.0580 H   0  0  0  0  0  0  0  0  0  0  0  0
   -2.6222    1.9018    0.8375 H   0  0  0  0  0  0  0  0  0  0  0  0
   -3.3011   -0.1065    0.4530 C   0  0  0  0  0  0  0  0  0  0  0  0
   -4.4986   -0.0047    0.1531 H   0  0  0  0  0  0  0  0  0  0  0  0
   -3.1064   -0.0915    1.6136 H   0  0  0  0  0  0  0  0  0  0  0  0
   -2.7165   -1.2596   -0.5058 O   0  0  0  0  0  0  0  0  0  0  0  0
  1  3  1  0  0  0  0
  2  1  1  0  0  0  0
  4  1  1  0  0  0  0
  4  5  1  0  0  0  0
  6  4  1  0  0  0  0
  8  1  1  0  0  0  0
  8 11  1  0  0  0  0
  8 10  1  0  0  0  0
  9  8  1  0  0  0  0
 11 13  1  0  0  0  0
 12 11  1  0  0  0  0
 14  4  1  0  0  0  0
 14 11  1  0  0  0  0
M  END
$$$$
Title Card Required
 OpenBabel06272217483D

 14 13  0  0  0  0  0  0  0  0999 V2000
   -1.0814    0.6573    0.1802 C   0  0  0  0  0  0  0  0  0  0  0  0
   -0.4818    1.4133   -0.1613 H   0  0  0  0  0  0  0  0  0  0  0  0
   -0.9683    0.6864    1.2617 H   0  0  0  0  0  0  0  0  0  0  0  0
   -1.0480   -0.7432   -0.2900 C   0  0  0  0  0  0  0  0  0  0  0  0
   -0.4658   -1.2810    0.4701 H   0  0  0  0  0  0  0  0  0  0  0  0
   -0.5372   -0.8472   -1.3374 H   0  0  0  0  0  0  0  0  0  0  0  0
    1.9648    0.0723    0.0222 Br  0  0  0  0  0 15  0  0  0  0  0  0
   -2.5511    1.0890    0.0354 C   0  0  0  0  0  0  0  0  0  0  0  0
   -2.8074    1.5425   -0.9757 H   0  0  0  0  0  0  0  0  0  0  0  0
   -2.6396    1.9361    0.7965 H   0  0  0  0  0  0  0  0  0  0  0  0
   -3.3032   -0.0902    0.4588 C   0  0  0  0  0  0  0  0  0  0  0  0
   -4.5029   -0.0716    0.1181 H   0  0  0  0  0  0  0  0  0  0  0  0
   -3.1596   -0.1106    1.5749 H   0  0  0  0  0  0  0  0  0  0  0  0
   -2.7240   -1.2473   -0.5081 O   0  0  0  0  0  0  0  0  0  0  0  0
  1  3  1  0  0  0  0
  2  1  1  0  0  0  0
  4  1  1  0  0  0  0
  4  5  1  0  0  0  0
  6  4  1  0  0  0  0
  8  1  1  0  0  0  0
  8 11  1  0  0  0  0
  8 10  1  0  0  0  0
  9  8  1  0  0  0  0
 11 13  1  0  0  0  0
 12 11  1  0  0  0  0
 14  4  1  0  0  0  0
 14 11  1  0  0  0  0
M  END
$$$$
Title Card Required
 OpenBabel06272217483D

 14 13  0  0  0  0  0  0  0  0999 V2000
   -1.1037    0.6643    0.1773 C   0  0  0  0  0  0  0  0  0  0  0  0
   -0.4434    1.4264   -0.1740 H   0  0  0  0  0  0  0  0  0  0  0  0
   -0.8932    0.7111    1.2971 H   0  0  0  0  0  0  0  0  0  0  0  0
   -1.0656   -0.7583   -0.2924 C   0  0  0  0  0  0  0  0  0  0  0  0
   -0.4709   -1.3556    0.4587 H   0  0  0  0  0  0  0  0  0  0  0  0
   -0.5693   -0.8547   -1.3576 H   0  0  0  0  0  0  0  0  0  0  0  0
    1.9710    0.0738    0.0227 Br  0  0  0  0  0 15  0  0  0  0  0  0
   -2.5416    1.0680    0.0365 C   0  0  0  0  0  0  0  0  0  0  0  0
   -2.8417    1.5091   -0.8890 H   0  0  0  0  0  0  0  0  0  0  0  0
   -2.6619    1.9587    0.7464 H   0  0  0  0  0  0  0  0  0  0  0  0
   -3.3088   -0.0784    0.4600 C   0  0  0  0  0  0  0  0  0  0  0  0
   -4.4634   -0.1340    0.1045 H   0  0  0  0  0  0  0  0  0  0  0  0
   -3.2117   -0.1464    1.5290 H   0  0  0  0  0  0  0  0  0  0  0  0
   -2.7280   -1.2323   -0.5062 O   0  0  0  0  0  0  0  0  0  0  0  0
  1  3  1  0  0  0  0
  2  1  1  0  0  0  0
  4  1  1  0  0  0  0
  4  5  1  0  0  0  0
  6  4  1  0  0  0  0
  8  1  1  0  0  0  0
  8 11  1  0  0  0  0
  8 10  1  0  0  0  0
  9  8  1  0  0  0  0
 11 13  1  0  0  0  0
 12 11  1  0  0  0  0
 14  4  1  0  0  0  0
 14 11  1  0  0  0  0
M  END
$$$$
Title Card Required
 OpenBabel06272217483D

 14 13  0  0  0  0  0  0  0  0999 V2000
   -1.1265    0.6711    0.1770 C   0  0  0  0  0  0  0  0  0  0  0  0
   -0.3940    1.4401   -0.2005 H   0  0  0  0  0  0  0  0  0  0  0  0
   -0.8210    0.7303    1.3179 H   0  0  0  0  0  0  0  0  0  0  0  0
   -1.0829   -0.7747   -0.2976 C   0  0  0  0  0  0  0  0  0  0  0  0
   -0.4893   -1.4293    0.4357 H   0  0  0  0  0  0  0  0  0  0  0  0
   -0.6148   -0.8630   -1.3501 H   0  0  0  0  0  0  0  0  0  0  0  0
    1.9771    0.0753    0.0231 Br  0  0  0  0  0 15  0  0  0  0  0  0
   -2.5324    1.0517    0.0394 C   0  0  0  0  0  0  0  0  0  0  0  0
   -2.8760    1.4748   -0.8239 H   0  0  0  0  0  0  0  0  0  0  0  0
   -2.6871    1.9693    0.6917 H   0  0  0  0  0  0  0  0  0  0  0  0
   -3.3177   -0.0709    0.4563 C   0  0  0  0  0  0  0  0  0  0  0  0
   -4.3941   -0.1883    0.1063 H   0  0  0  0  0  0  0  0  0  0  0  0
   -3.2602   -0.1968    1.4953 H   0  0  0  0  0  0  0  0  0  0  0  0
   -2.7294   -1.2147   -0.5010 O   0  0  0  0  0  0  0  0  0  0  0  0
  1  3  1  0  0  0  0
  2  1  1  0  0  0  0
  4  1  1  0  0  0  0
  4  5  1  0  0  0  0
  6  4  1  0  0  0  0
  8  1  1  0  0  0  0
  8 11  1  0  0  0  0
  8 10  1  0  0  0  0
  9  8  1  0  0  0  0
 11 13  1  0  0  0  0
 12 11  1  0  0  0  0
 14  4  1  0  0  0  0
 14 11  1  0  0  0  0
M  END
$$$$
Title Card Required
 OpenBabel06272217483D

 14 13  0  0  0  0  0  0  0  0999 V2000
   -1.1472    0.6781    0.1791 C   0  0  0  0  0  0  0  0  0  0  0  0
   -0.3510    1.4384   -0.2330 H   0  0  0  0  0  0  0  0  0  0  0  0
   -0.7571    0.7441    1.3146 H   0  0  0  0  0  0  0  0  0  0  0  0
   -1.1010   -0.7927   -0.3047 C   0  0  0  0  0  0  0  0  0  0  0  0
   -0.5236   -1.4966    0.3984 H   0  0  0  0  0  0  0  0  0  0  0  0
   -0.6708   -0.8724   -1.3224 H   0  0  0  0  0  0  0  0  0  0  0  0
    1.9832    0.0768    0.0236 Br  0  0  0  0  0 15  0  0  0  0  0  0
   -2.5238    1.0395    0.0456 C   0  0  0  0  0  0  0  0  0  0  0  0
   -2.9164    1.4471   -0.8030 H   0  0  0  0  0  0  0  0  0  0  0  0
   -2.7139    1.9700    0.6375 H   0  0  0  0  0  0  0  0  0  0  0  0
   -3.3287   -0.0679    0.4476 C   0  0  0  0  0  0  0  0  0  0  0  0
   -4.3144   -0.2320    0.1156 H   0  0  0  0  0  0  0  0  0  0  0  0
   -3.3038   -0.2619    1.4855 H   0  0  0  0  0  0  0  0  0  0  0  0
   -2.7279   -1.1943   -0.4927 O   0  0  0  0  0  0  0  0  0  0  0  0
  1  3  1  0  0  0  0
  2  1  1  0  0  0  0
  4  1  1  0  0  0  0
  4  5  1  0  0  0  0
  6  4  1  0  0  0  0
  8  1  1  0  0  0  0
  8 11  1  0  0  0  0
  8 10  1  0  0  0  0
  9  8  1  0  0  0  0
 11 13  1  0  0  0  0
 12 11  1  0  0  0  0
 14  4  1  0  0  0  0
 14 11  1  0  0  0  0
M  END
$$$$
Title Card Required
 OpenBabel06272217483D

 14 13  0  0  0  0  0  0  0  0999 V2000
   -1.1630    0.6853    0.1832 C   0  0  0  0  0  0  0  0  0  0  0  0
   -0.3271    1.4126   -0.2663 H   0  0  0  0  0  0  0  0  0  0  0  0
   -0.7073    0.7522    1.2833 H   0  0  0  0  0  0  0  0  0  0  0  0
   -1.1210   -0.8120   -0.3125 C   0  0  0  0  0  0  0  0  0  0  0  0
   -0.5740   -1.5536    0.3481 H   0  0  0  0  0  0  0  0  0  0  0  0
   -0.7305   -0.8838   -1.2899 H   0  0  0  0  0  0  0  0  0  0  0  0
    1.9895    0.0783    0.0241 Br  0  0  0  0  0 15  0  0  0  0  0  0
   -2.5171    1.0318    0.0548 C   0  0  0  0  0  0  0  0  0  0  0  0
   -2.9615    1.4254   -0.8311 H   0  0  0  0  0  0  0  0  0  0  0  0
   -2.7415    1.9650    0.5911 H   0  0  0  0  0  0  0  0  0  0  0  0
   -3.3391   -0.0700    0.4357 C   0  0  0  0  0  0  0  0  0  0  0  0
   -4.2599   -0.2647    0.1196 H   0  0  0  0  0  0  0  0  0  0  0  0
   -3.3406   -0.3391    1.4969 H   0  0  0  0  0  0  0  0  0  0  0  0
   -2.7237   -1.1712   -0.4813 O   0  0  0  0  0  0  0  0  0  0  0  0
  1  3  1  0  0  0  0
  2  1  1  0  0  0  0
  4  1  1  0  0  0  0
  4  5  1  0  0  0  0
  6  4  1  0  0  0  0
  8  1  1  0  0  0  0
  8 11  1  0  0  0  0
  8 10  1  0  0  0  0
  9  8  1  0  0  0  0
 11 13  1  0  0  0  0
 12 11  1  0  0  0  0
 14  4  1  0  0  0  0
 14 11  1  0  0  0  0
M  END
$$$$
Title Card Required
 OpenBabel06272217483D

 14 13  0  0  0  0  0  0  0  0999 V2000
   -1.1715    0.6916    0.1885 C   0  0  0  0  0  0  0  0  0  0  0  0
   -0.3290    1.3626   -0.2977 H   0  0  0  0  0  0  0  0  0  0  0  0
   -0.6760    0.7547    1.2282 H   0  0  0  0  0  0  0  0  0  0  0  0
   -1.1439   -0.8314   -0.3191 C   0  0  0  0  0  0  0  0  0  0  0  0
   -0.6359   -1.5994    0.2915 H   0  0  0  0  0  0  0  0  0  0  0  0
   -0.7832   -0.8976   -1.2764 H   0  0  0  0  0  0  0  0  0  0  0  0
    1.9959    0.0797    0.0246 Br  0  0  0  0  0 15  0  0  0  0  0  0
   -2.5146    1.0297    0.0650 C   0  0  0  0  0  0  0  0  0  0  0  0
   -2.9994    1.4012   -0.8893 H   0  0  0  0  0  0  0  0  0  0  0  0
   -2.7691    1.9605    0.5594 H   0  0  0  0  0  0  0  0  0  0  0  0
   -3.3459   -0.0776    0.4234 C   0  0  0  0  0  0  0  0  0  0  0  0
   -4.2681   -0.2883    0.1045 H   0  0  0  0  0  0  0  0  0  0  0  0
   -3.3686   -0.4198    1.5139 H   0  0  0  0  0  0  0  0  0  0  0  0
   -2.7166   -1.1461   -0.4675 O   0  0  0  0  0  0  0  0  0  0  0  0
  1  3  1  0  0  0  0
  2  1  1  0  0  0  0
  4  1  1  0  0  0  0
  4  5  1  0  0  0  0
  6  4  1  0  0  0  0
  8  1  1  0  0  0  0
  8 11  1  0  0  0  0
  8 10  1  0  0  0  0
  9  8  1  0  0  0  0
 11 13  1  0  0  0  0
 12 11  1  0  0  0  0
 14  4  1  0  0  0  0
 14 11  1  0  0  0  0
M  END
$$$$
Title Card Required
 OpenBabel06272217483D

 14 13  0  0  0  0  0  0  0  0999 V2000
   -1.1723    0.6955    0.1936 C   0  0  0  0  0  0  0  0  0  0  0  0
   -0.3535    1.2979   -0.3261 H   0  0  0  0  0  0  0  0  0  0  0  0
   -0.6623    0.7529    1.1654 H   0  0  0  0  0  0  0  0  0  0  0  0
   -1.1692   -0.8489   -0.3233 C   0  0  0  0  0  0  0  0  0  0  0  0
   -0.6985   -1.6366    0.2407 H   0  0  0  0  0  0  0  0  0  0  0  0
   -0.8204   -0.9128   -1.2963 H   0  0  0  0  0  0  0  0  0  0  0  0
    2.0020    0.0811    0.0251 Br  0  0  0  0  0 15  0  0  0  0  0  0
   -2.5175    1.0331    0.0735 C   0  0  0  0  0  0  0  0  0  0  0  0
   -3.0177    1.3689   -0.9496 H   0  0  0  0  0  0  0  0  0  0  0  0
   -2.7956    1.9619    0.5458 H   0  0  0  0  0  0  0  0  0  0  0  0
   -3.3488   -0.0902    0.4129 C   0  0  0  0  0  0  0  0  0  0  0  0
   -4.3316   -0.3007    0.0732 H   0  0  0  0  0  0  0  0  0  0  0  0
   -3.3868   -0.4908    1.5204 H   0  0  0  0  0  0  0  0  0  0  0  0
   -2.7076   -1.1212   -0.4526 O   0  0  0  0  0  0  0  0  0  0  0  0
  1  3  1  0  0  0  0
  2  1  1  0  0  0  0
  4  1  1  0  0  0  0
  4  5  1  0  0  0  0
  6  4  1  0  0  0  0
  8  1  1  0  0  0  0
  8 11  1  0  0  0  0
  8 10  1  0  0  0  0
  9  8  1  0  0  0  0
 11 13  1  0  0  0  0
 12 11  1  0  0  0  0
 14  4  1  0  0  0  0
 14 11  1  0  0  0  0
M  END
$$$$
Title Card Required
 OpenBabel06272217483D

 14 13  0  0  0  0  0  0  0  0999 V2000
   -1.1676    0.6967    0.1975 C   0  0  0  0  0  0  0  0  0  0  0  0
   -0.3909    1.2288   -0.3554 H   0  0  0  0  0  0  0  0  0  0  0  0
   -0.6576    0.7487    1.1125 H   0  0  0  0  0  0  0  0  0  0  0  0
   -1.1967   -0.8637   -0.3261 C   0  0  0  0  0  0  0  0  0  0  0  0
   -0.7551   -1.6724    0.2023 H   0  0  0  0  0  0  0  0  0  0  0  0
   -0.8456   -0.9276   -1.3403 H   0  0  0  0  0  0  0  0  0  0  0  0
    2.0078    0.0824    0.0255 Br  0  0  0  0  0 15  0  0  0  0  0  0
   -2.5254    1.0411    0.0795 C   0  0  0  0  0  0  0  0  0  0  0  0
   -3.0140    1.3280   -0.9972 H   0  0  0  0  0  0  0  0  0  0  0  0
   -2.8212    1.9702    0.5470 H   0  0  0  0  0  0  0  0  0  0  0  0
   -3.3507   -0.1076    0.4039 C   0  0  0  0  0  0  0  0  0  0  0  0
   -4.4126   -0.2987    0.0386 H   0  0  0  0  0  0  0  0  0  0  0  0
   -3.3970   -0.5474    1.5111 H   0  0  0  0  0  0  0  0  0  0  0  0
   -2.6974   -1.0970   -0.4372 O   0  0  0  0  0  0  0  0  0  0  0  0
  1  3  1  0  0  0  0
  2  1  1  0  0  0  0
  4  1  1  0  0  0  0
  4  5  1  0  0  0  0
  6  4  1  0  0  0  0
  8  1  1  0  0  0  0
  8 11  1  0  0  0  0
  8 10  1  0  0  0  0
  9  8  1  0  0  0  0
 11 13  1  0  0  0  0
 12 11  1  0  0  0  0
 14  4  1  0  0  0  0
 14 11  1  0  0  0  0
M  END
$$$$
Title Card Required
 OpenBabel06272217483D

 14 13  0  0  0  0  0  0  0  0999 V2000
   -1.1598    0.6944    0.1993 C   0  0  0  0  0  0  0  0  0  0  0  0
   -0.4306    1.1631   -0.3929 H   0  0  0  0  0  0  0  0  0  0  0  0
   -0.6520    0.7437    1.0845 H   0  0  0  0  0  0  0  0  0  0  0  0
   -1.2265   -0.8761   -0.3294 C   0  0  0  0  0  0  0  0  0  0  0  0
   -0.8038   -1.7119    0.1780 H   0  0  0  0  0  0  0  0  0  0  0  0
   -0.8658   -0.9412   -1.3914 H   0  0  0  0  0  0  0  0  0  0  0  0
    2.0135    0.0837    0.0259 Br  0  0  0  0  0 15  0  0  0  0  0  0
   -2.5379    1.0528    0.0832 C   0  0  0  0  0  0  0  0  0  0  0  0
   -2.9895    1.2799   -1.0273 H   0  0  0  0  0  0  0  0  0  0  0  0
   -2.8463    1.9839    0.5595 H   0  0  0  0  0  0  0  0  0  0  0  0
   -3.3537   -0.1295    0.3957 C   0  0  0  0  0  0  0  0  0  0  0  0
   -4.4848   -0.2814    0.0089 H   0  0  0  0  0  0  0  0  0  0  0  0
   -3.4013   -0.5893    1.4858 H   0  0  0  0  0  0  0  0  0  0  0  0
   -2.6861   -1.0732   -0.4214 O   0  0  0  0  0  0  0  0  0  0  0  0
  1  3  1  0  0  0  0
  2  1  1  0  0  0  0
  4  5  1  0  0  0  0
  4  1  1  0  0  0  0
  6  4  1  0  0  0  0
  8  1  1  0  0  0  0
  8 11  1  0  0  0  0
  8 10  1  0  0  0  0
  9  8  1  0  0  0  0
 11 13  1  0  0  0  0
 12 11  1  0  0  0  0
 14  4  1  0  0  0  0
 14 11  1  0  0  0  0
M  END
$$$$
Title Card Required
 OpenBabel06272217483D

 14 13  0  0  0  0  0  0  0  0999 V2000
   -1.1512    0.6885    0.1988 C   0  0  0  0  0  0  0  0  0  0  0  0
   -0.4619    1.1085   -0.4453 H   0  0  0  0  0  0  0  0  0  0  0  0
   -0.6389    0.7392    1.0903 H   0  0  0  0  0  0  0  0  0  0  0  0
   -1.2577   -0.8862   -0.3340 C   0  0  0  0  0  0  0  0  0  0  0  0
   -0.8440   -1.7542    0.1666 H   0  0  0  0  0  0  0  0  0  0  0  0
   -0.8860   -0.9526   -1.4342 H   0  0  0  0  0  0  0  0  0  0  0  0
    2.0192    0.0849    0.0264 Br  0  0  0  0  0 15  0  0  0  0  0  0
   -2.5540    1.0676    0.0849 C   0  0  0  0  0  0  0  0  0  0  0  0
   -2.9465    1.2278   -1.0370 H   0  0  0  0  0  0  0  0  0  0  0  0
   -2.8704    2.0000    0.5792 H   0  0  0  0  0  0  0  0  0  0  0  0
   -3.3587   -0.1547    0.3879 C   0  0  0  0  0  0  0  0  0  0  0  0
   -4.5342   -0.2511   -0.0114 H   0  0  0  0  0  0  0  0  0  0  0  0
   -3.4018   -0.6165    1.4474 H   0  0  0  0  0  0  0  0  0  0  0  0
   -2.6744   -1.0503   -0.4058 O   0  0  0  0  0  0  0  0  0  0  0  0
  1  3  1  0  0  0  0
  2  1  1  0  0  0  0
  4  5  1  0  0  0  0
  4  1  1  0  0  0  0
  6  4  1  0  0  0  0
  8  1  1  0  0  0  0
  8 11  1  0  0  0  0
  8 10  1  0  0  0  0
  9  8  1  0  0  0  0
 11 13  1  0  0  0  0
 12 11  1  0  0  0  0
 14  4  1  0  0  0  0
 14 11  1  0  0  0  0
M  END
$$$$
Title Card Required
 OpenBabel06272217483D

 14 13  0  0  0  0  0  0  0  0999 V2000
   -1.1431    0.6791    0.1967 C   0  0  0  0  0  0  0  0  0  0  0  0
   -0.4795    1.0687   -0.5139 H   0  0  0  0  0  0  0  0  0  0  0  0
   -0.6187    0.7359    1.1237 H   0  0  0  0  0  0  0  0  0  0  0  0
   -1.2888   -0.8942   -0.3401 C   0  0  0  0  0  0  0  0  0  0  0  0
   -0.8770   -1.7934    0.1643 H   0  0  0  0  0  0  0  0  0  0  0  0
   -0.9086   -0.9616   -1.4593 H   0  0  0  0  0  0  0  0  0  0  0  0
    2.0248    0.0861    0.0268 Br  0  0  0  0  0 15  0  0  0  0  0  0
   -2.5726    1.0844    0.0850 C   0  0  0  0  0  0  0  0  0  0  0  0
   -2.8903    1.1765   -1.0276 H   0  0  0  0  0  0  0  0  0  0  0  0
   -2.8924    2.0149    0.6022 H   0  0  0  0  0  0  0  0  0  0  0  0
   -3.3660   -0.1815    0.3805 C   0  0  0  0  0  0  0  0  0  0  0  0
   -4.5547   -0.2124   -0.0211 H   0  0  0  0  0  0  0  0  0  0  0  0
   -3.4003   -0.6306    1.4030 H   0  0  0  0  0  0  0  0  0  0  0  0
   -2.6630   -1.0291   -0.3909 O   0  0  0  0  0  0  0  0  0  0  0  0
  1  3  1  0  0  0  0
  2  1  1  0  0  0  0
  4  5  1  0  0  0  0
  4  1  1  0  0  0  0
  6  4  1  0  0  0  0
  8  1  1  0  0  0  0
  8 11  1  0  0  0  0
  8 10  1  0  0  0  0
  9  8  1  0  0  0  0
 11 13  1  0  0  0  0
 12 11  1  0  0  0  0
 14  4  1  0  0  0  0
 14 11  1  0  0  0  0
M  END
$$$$
Title Card Required
 OpenBabel06272217483D

 14 13  0  0  0  0  0  0  0  0999 V2000
   -1.1353    0.6668    0.1938 C   0  0  0  0  0  0  0  0  0  0  0  0
   -0.4870    1.0407   -0.5927 H   0  0  0  0  0  0  0  0  0  0  0  0
   -0.5968    0.7334    1.1688 H   0  0  0  0  0  0  0  0  0  0  0  0
   -1.3191   -0.9009   -0.3476 C   0  0  0  0  0  0  0  0  0  0  0  0
   -0.9051   -1.8240    0.1665 H   0  0  0  0  0  0  0  0  0  0  0  0
   -0.9351   -0.9684   -1.4638 H   0  0  0  0  0  0  0  0  0  0  0  0
    2.0304    0.0873    0.0272 Br  0  0  0  0  0 15  0  0  0  0  0  0
   -2.5929    1.1023    0.0844 C   0  0  0  0  0  0  0  0  0  0  0  0
   -2.8258    1.1297   -1.0044 H   0  0  0  0  0  0  0  0  0  0  0  0
   -2.9120    2.0265    0.6250 H   0  0  0  0  0  0  0  0  0  0  0  0
   -3.3756   -0.2084    0.3732 C   0  0  0  0  0  0  0  0  0  0  0  0
   -4.5462   -0.1695   -0.0208 H   0  0  0  0  0  0  0  0  0  0  0  0
   -3.3990   -0.6355    1.3617 H   0  0  0  0  0  0  0  0  0  0  0  0
   -2.6523   -1.0099   -0.3774 O   0  0  0  0  0  0  0  0  0  0  0  0
  1  3  1  0  0  0  0
  2  1  1  0  0  0  0
  4  5  1  0  0  0  0
  4  1  1  0  0  0  0
  6  4  1  0  0  0  0
  8  1  1  0  0  0  0
  8 11  1  0  0  0  0
  8 10  1  0  0  0  0
  9  8  1  0  0  0  0
 11 13  1  0  0  0  0
 12 11  1  0  0  0  0
 14  4  1  0  0  0  0
 14 11  1  0  0  0  0
M  END
$$$$
Title Card Required
 OpenBabel06272217483D

 14 13  0  0  0  0  0  0  0  0999 V2000
   -1.1268    0.6518    0.1904 C   0  0  0  0  0  0  0  0  0  0  0  0
   -0.4917    1.0193   -0.6725 H   0  0  0  0  0  0  0  0  0  0  0  0
   -0.5787    0.7312    1.2104 H   0  0  0  0  0  0  0  0  0  0  0  0
   -1.3483   -0.9067   -0.3562 C   0  0  0  0  0  0  0  0  0  0  0  0
   -0.9310   -1.8413    0.1702 H   0  0  0  0  0  0  0  0  0  0  0  0
   -0.9666   -0.9739   -1.4473 H   0  0  0  0  0  0  0  0  0  0  0  0
    2.0363    0.0886    0.0277 Br  0  0  0  0  0 15  0  0  0  0  0  0
   -2.6149    1.1213    0.0842 C   0  0  0  0  0  0  0  0  0  0  0  0
   -2.7568    1.0903   -0.9761 H   0  0  0  0  0  0  0  0  0  0  0  0
   -2.9297    2.0338    0.6455 H   0  0  0  0  0  0  0  0  0  0  0  0
   -3.3882   -0.2346    0.3653 C   0  0  0  0  0  0  0  0  0  0  0  0
   -4.5085   -0.1251   -0.0118 H   0  0  0  0  0  0  0  0  0  0  0  0
   -3.3998   -0.6360    1.3346 H   0  0  0  0  0  0  0  0  0  0  0  0
   -2.6428   -0.9927   -0.3653 O   0  0  0  0  0  0  0  0  0  0  0  0
  1  3  1  0  0  0  0
  2  1  1  0  0  0  0
  4  5  1  0  0  0  0
  4  1  1  0  0  0  0
  6  4  1  0  0  0  0
  8  1  1  0  0  0  0
  8 11  1  0  0  0  0
  8 10  1  0  0  0  0
  9  8  1  0  0  0  0
 11 13  1  0  0  0  0
 12 11  1  0  0  0  0
 14  4  1  0  0  0  0
 14 11  1  0  0  0  0
M  END
$$$$
Title Card Required
 OpenBabel06272217483D

 14 13  0  0  0  0  0  0  0  0999 V2000
   -1.1166    0.6336    0.1862 C   0  0  0  0  0  0  0  0  0  0  0  0
   -0.5011    0.9999   -0.7410 H   0  0  0  0  0  0  0  0  0  0  0  0
   -0.5693    0.7279    1.2338 H   0  0  0  0  0  0  0  0  0  0  0  0
   -1.3757   -0.9120   -0.3657 C   0  0  0  0  0  0  0  0  0  0  0  0
   -0.9559   -1.8399    0.1733 H   0  0  0  0  0  0  0  0  0  0  0  0
   -1.0036   -0.9787   -1.4108 H   0  0  0  0  0  0  0  0  0  0  0  0
    2.0430    0.0899    0.0281 Br  0  0  0  0  0 15  0  0  0  0  0  0
   -2.6389    1.1415    0.0860 C   0  0  0  0  0  0  0  0  0  0  0  0
   -2.6870    1.0623   -0.9573 H   0  0  0  0  0  0  0  0  0  0  0  0
   -2.9461    2.0367    0.6613 H   0  0  0  0  0  0  0  0  0  0  0  0
   -3.4049   -0.2590    0.3567 C   0  0  0  0  0  0  0  0  0  0  0  0
   -4.4428   -0.0822    0.0039 H   0  0  0  0  0  0  0  0  0  0  0  0
   -3.4051   -0.6365    1.3367 H   0  0  0  0  0  0  0  0  0  0  0  0
   -2.6355   -0.9781   -0.3552 O   0  0  0  0  0  0  0  0  0  0  0  0
  1  3  1  0  0  0  0
  2  1  1  0  0  0  0
  4 14  1  0  0  0  0
  4  5  1  0  0  0  0
  4  1  1  0  0  0  0
  6  4  1  0  0  0  0
  8  1  1  0  0  0  0
  8 11  1  0  0  0  0
  8 10  1  0  0  0  0
  9  8  1  0  0  0  0
 11 13  1  0  0  0  0
 12 11  1  0  0  0  0
 14 11  1  0  0  0  0
M  END
$$$$
Title Card Required
 OpenBabel06272217483D

 14 13  0  0  0  0  0  0  0  0999 V2000
   -1.1035    0.6116    0.1805 C   0  0  0  0  0  0  0  0  0  0  0  0
   -0.5227    0.9795   -0.7786 H   0  0  0  0  0  0  0  0  0  0  0  0
   -0.5741    0.7214    1.2200 H   0  0  0  0  0  0  0  0  0  0  0  0
   -1.3982   -0.9164   -0.3748 C   0  0  0  0  0  0  0  0  0  0  0  0
   -0.9786   -1.8122    0.1756 H   0  0  0  0  0  0  0  0  0  0  0  0
   -1.0422   -0.9846   -1.3648 H   0  0  0  0  0  0  0  0  0  0  0  0
    2.0509    0.0915    0.0287 Br  0  0  0  0  0 15  0  0  0  0  0  0
   -2.6648    1.1622    0.0923 C   0  0  0  0  0  0  0  0  0  0  0  0
   -2.6226    1.0546   -0.9676 H   0  0  0  0  0  0  0  0  0  0  0  0
   -2.9625    2.0377    0.6698 H   0  0  0  0  0  0  0  0  0  0  0  0
   -3.4261   -0.2793    0.3488 C   0  0  0  0  0  0  0  0  0  0  0  0
   -4.3665   -0.0447    0.0167 H   0  0  0  0  0  0  0  0  0  0  0  0
   -3.4183   -0.6374    1.3809 H   0  0  0  0  0  0  0  0  0  0  0  0
   -2.6338   -0.9679   -0.3489 O   0  0  0  0  0  0  0  0  0  0  0  0
  1  3  1  0  0  0  0
  2  1  1  0  0  0  0
  4 14  1  0  0  0  0
  4  5  1  0  0  0  0
  4  1  1  0  0  0  0
  6  4  1  0  0  0  0
  8  1  1  0  0  0  0
  8 11  1  0  0  0  0
  8 10  1  0  0  0  0
  9  8  1  0  0  0  0
 11 13  1  0  0  0  0
 12 11  1  0  0  0  0
 14 11  1  0  0  0  0
M  END
$$$$
Title Card Required
 OpenBabel06272217483D

 14 13  0  0  0  0  0  0  0  0999 V2000
   -1.0883    0.5855    0.1718 C   0  0  0  0  0  0  0  0  0  0  0  0
   -0.5595    0.9600   -0.7576 H   0  0  0  0  0  0  0  0  0  0  0  0
   -0.5945    0.7086    1.1523 H   0  0  0  0  0  0  0  0  0  0  0  0
   -1.4091   -0.9178   -0.3789 C   0  0  0  0  0  0  0  0  0  0  0  0
   -0.9908   -1.7561    0.1819 H   0  0  0  0  0  0  0  0  0  0  0  0
   -1.0651   -0.9956   -1.3503 H   0  0  0  0  0  0  0  0  0  0  0  0
    2.0606    0.0933    0.0293 Br  0  0  0  0  0 15  0  0  0  0  0  0
   -2.6904    1.1802    0.1035 C   0  0  0  0  0  0  0  0  0  0  0  0
   -2.5786    1.0852   -1.0086 H   0  0  0  0  0  0  0  0  0  0  0  0
   -2.9808    2.0472    0.6703 H   0  0  0  0  0  0  0  0  0  0  0  0
   -3.4479   -0.2917    0.3481 C   0  0  0  0  0  0  0  0  0  0  0  0
   -4.3492   -0.0136   -0.0026 H   0  0  0  0  0  0  0  0  0  0  0  0
   -3.4448   -0.6302    1.4545 H   0  0  0  0  0  0  0  0  0  0  0  0
   -2.6442   -0.9663   -0.3496 O   0  0  0  0  0  0  0  0  0  0  0  0
  1  3  1  0  0  0  0
  2  1  1  0  0  0  0
  4 14  1  0  0  0  0
  4  1  1  0  0  0  0
  4  5  1  0  0  0  0
  6  4  1  0  0  0  0
  8  1  1  0  0  0  0
  8 11  1  0  0  0  0
  8 10  1  0  0  0  0
  9  8  1  0  0  0  0
 11 13  1  0  0  0  0
 12 11  1  0  0  0  0
 14 11  1  0  0  0  0
M  END
$$$$
Title Card Required
 OpenBabel06272217483D

 14 13  0  0  0  0  0  0  0  0999 V2000
   -1.0779    0.5624    0.1613 C   0  0  0  0  0  0  0  0  0  0  0  0
   -0.5891    0.9545   -0.6956 H   0  0  0  0  0  0  0  0  0  0  0  0
   -0.6084    0.6937    1.0764 H   0  0  0  0  0  0  0  0  0  0  0  0
   -1.4047   -0.9141   -0.3757 C   0  0  0  0  0  0  0  0  0  0  0  0
   -0.9801   -1.7047    0.2005 H   0  0  0  0  0  0  0  0  0  0  0  0
   -1.0585   -1.0106   -1.3908 H   0  0  0  0  0  0  0  0  0  0  0  0
    2.0693    0.0949    0.0299 Br  0  0  0  0  0 15  0  0  0  0  0  0
   -2.7074    1.1884    0.1134 C   0  0  0  0  0  0  0  0  0  0  0  0
   -2.5759    1.1497   -1.0361 H   0  0  0  0  0  0  0  0  0  0  0  0
   -2.9979    2.0713    0.6680 H   0  0  0  0  0  0  0  0  0  0  0  0
   -3.4627   -0.2920    0.3586 C   0  0  0  0  0  0  0  0  0  0  0  0
   -4.4189    0.0024   -0.0567 H   0  0  0  0  0  0  0  0  0  0  0  0
   -3.4786   -0.6091    1.5017 H   0  0  0  0  0  0  0  0  0  0  0  0
   -2.6657   -0.9745   -0.3576 O   0  0  0  0  0  0  0  0  0  0  0  0
  1  3  1  0  0  0  0
  2  1  1  0  0  0  0
  4 14  1  0  0  0  0
  4  1  1  0  0  0  0
  4  5  1  0  0  0  0
  6  4  1  0  0  0  0
  8  1  1  0  0  0  0
  8 11  1  0  0  0  0
  8 10  1  0  0  0  0
  9  8  1  0  0  0  0
 11 13  1  0  0  0  0
 12 11  1  0  0  0  0
 14 11  1  0  0  0  0
M  END
$$$$
Title Card Required
 OpenBabel06272217483D

 14 13  0  0  0  0  0  0  0  0999 V2000
   -1.0751    0.5418    0.1495 C   0  0  0  0  0  0  0  0  0  0  0  0
   -0.5948    0.9713   -0.6412 H   0  0  0  0  0  0  0  0  0  0  0  0
   -0.5979    0.6811    1.0387 H   0  0  0  0  0  0  0  0  0  0  0  0
   -1.3918   -0.9063   -0.3704 C   0  0  0  0  0  0  0  0  0  0  0  0
   -0.9507   -1.6724    0.2321 H   0  0  0  0  0  0  0  0  0  0  0  0
   -1.0404   -1.0261   -1.4417 H   0  0  0  0  0  0  0  0  0  0  0  0
    2.0771    0.0963    0.0304 Br  0  0  0  0  0 15  0  0  0  0  0  0
   -2.7172    1.1893    0.1205 C   0  0  0  0  0  0  0  0  0  0  0  0
   -2.6042    1.2293   -1.0336 H   0  0  0  0  0  0  0  0  0  0  0  0
   -3.0114    2.1007    0.6648 H   0  0  0  0  0  0  0  0  0  0  0  0
   -3.4750   -0.2830    0.3743 C   0  0  0  0  0  0  0  0  0  0  0  0
   -4.5012   -0.0047   -0.1103 H   0  0  0  0  0  0  0  0  0  0  0  0
   -3.5147   -0.5789    1.5127 H   0  0  0  0  0  0  0  0  0  0  0  0
   -2.6924   -0.9889   -0.3694 O   0  0  0  0  0  0  0  0  0  0  0  0
  1  3  1  0  0  0  0
  2  1  1  0  0  0  0
  4 14  1  0  0  0  0
  4  1  1  0  0  0  0
  4  5  1  0  0  0  0
  6  4  1  0  0  0  0
  8  1  1  0  0  0  0
  8 11  1  0  0  0  0
  8 10  1  0  0  0  0
  9  8  1  0  0  0  0
 11 13  1  0  0  0  0
 12 11  1  0  0  0  0
 14 11  1  0  0  0  0
M  END
$$$$
Title Card Required
 OpenBabel06272217483D

 14 13  0  0  0  0  0  0  0  0999 V2000
   -1.0788    0.5229    0.1379 C   0  0  0  0  0  0  0  0  0  0  0  0
   -0.5744    1.0115   -0.6155 H   0  0  0  0  0  0  0  0  0  0  0  0
   -0.5659    0.6706    1.0412 H   0  0  0  0  0  0  0  0  0  0  0  0
   -1.3754   -0.8964   -0.3657 C   0  0  0  0  0  0  0  0  0  0  0  0
   -0.9121   -1.6540    0.2697 H   0  0  0  0  0  0  0  0  0  0  0  0
   -1.0232   -1.0394   -1.4733 H   0  0  0  0  0  0  0  0  0  0  0  0
    2.0841    0.0975    0.0308 Br  0  0  0  0  0 15  0  0  0  0  0  0
   -2.7223    1.1861    0.1255 C   0  0  0  0  0  0  0  0  0  0  0  0
   -2.6517    1.3112   -1.0082 H   0  0  0  0  0  0  0  0  0  0  0  0
   -3.0193    2.1247    0.6599 H   0  0  0  0  0  0  0  0  0  0  0  0
   -3.4877   -0.2675    0.3908 C   0  0  0  0  0  0  0  0  0  0  0  0
   -4.5584   -0.0331   -0.1452 H   0  0  0  0  0  0  0  0  0  0  0  0
   -3.5504   -0.5450    1.4989 H   0  0  0  0  0  0  0  0  0  0  0  0
   -2.7204   -1.0065   -0.3828 O   0  0  0  0  0  0  0  0  0  0  0  0
  1  3  1  0  0  0  0
  2  1  1  0  0  0  0
  4  1  1  0  0  0  0
  4  5  1  0  0  0  0
  6  4  1  0  0  0  0
  8  1  1  0  0  0  0
  8 11  1  0  0  0  0
  8 10  1  0  0  0  0
  9  8  1  0  0  0  0
 11 13  1  0  0  0  0
 12 11  1  0  0  0  0
 14  4  1  0  0  0  0
 14 11  1  0  0  0  0
M  END
$$$$
Title Card Required
 OpenBabel06272217483D

 14 13  0  0  0  0  0  0  0  0999 V2000
   -1.0866    0.5064    0.1274 C   0  0  0  0  0  0  0  0  0  0  0  0
   -0.5382    1.0656   -0.6098 H   0  0  0  0  0  0  0  0  0  0  0  0
   -0.5265    0.6588    1.0617 H   0  0  0  0  0  0  0  0  0  0  0  0
   -1.3580   -0.8863   -0.3624 C   0  0  0  0  0  0  0  0  0  0  0  0
   -0.8726   -1.6407    0.3051 H   0  0  0  0  0  0  0  0  0  0  0  0
   -1.0103   -1.0498   -1.4794 H   0  0  0  0  0  0  0  0  0  0  0  0
    2.0904    0.0986    0.0312 Br  0  0  0  0  0 15  0  0  0  0  0  0
   -2.7245    1.1806    0.1295 C   0  0  0  0  0  0  0  0  0  0  0  0
   -2.7102    1.3888   -0.9700 H   0  0  0  0  0  0  0  0  0  0  0  0
   -3.0207    2.1381    0.6539 H   0  0  0  0  0  0  0  0  0  0  0  0
   -3.5009   -0.2478    0.4055 C   0  0  0  0  0  0  0  0  0  0  0  0
   -4.5863   -0.0750   -0.1586 H   0  0  0  0  0  0  0  0  0  0  0  0
   -3.5844   -0.5114    1.4738 H   0  0  0  0  0  0  0  0  0  0  0  0
   -2.7478   -1.0258   -0.3964 O   0  0  0  0  0  0  0  0  0  0  0  0
  1  8  1  0  0  0  0
  1  3  1  0  0  0  0
  2  1  1  0  0  0  0
  4  1  1  0  0  0  0
  4  5  1  0  0  0  0
  6  4  1  0  0  0  0
  8 11  1  0  0  0  0
  8 10  1  0  0  0  0
  9  8  1  0  0  0  0
 11 13  1  0  0  0  0
 12 11  1  0  0  0  0
 14  4  1  0  0  0  0
 14 11  1  0  0  0  0
M  END
$$$$
Title Card Required
 OpenBabel06272217483D

 14 13  0  0  0  0  0  0  0  0999 V2000
   -1.0963    0.4929    0.1180 C   0  0  0  0  0  0  0  0  0  0  0  0
   -0.4985    1.1218   -0.6081 H   0  0  0  0  0  0  0  0  0  0  0  0
   -0.4910    0.6427    1.0815 H   0  0  0  0  0  0  0  0  0  0  0  0
   -1.3405   -0.8768   -0.3602 C   0  0  0  0  0  0  0  0  0  0  0  0
   -0.8364   -1.6256    0.3341 H   0  0  0  0  0  0  0  0  0  0  0  0
   -1.0013   -1.0574   -1.4620 H   0  0  0  0  0  0  0  0  0  0  0  0
    2.0966    0.0996    0.0316 Br  0  0  0  0  0 15  0  0  0  0  0  0
   -2.7247    1.1736    0.1334 C   0  0  0  0  0  0  0  0  0  0  0  0
   -2.7765    1.4614   -0.9270 H   0  0  0  0  0  0  0  0  0  0  0  0
   -3.0152    2.1396    0.6485 H   0  0  0  0  0  0  0  0  0  0  0  0
   -3.5149   -0.2247    0.4174 C   0  0  0  0  0  0  0  0  0  0  0  0
   -4.5890   -0.1251   -0.1525 H   0  0  0  0  0  0  0  0  0  0  0  0
   -3.6173   -0.4801    1.4496 H   0  0  0  0  0  0  0  0  0  0  0  0
   -2.7748   -1.0464   -0.4101 O   0  0  0  0  0  0  0  0  0  0  0  0
  1  8  1  0  0  0  0
  1  3  1  0  0  0  0
  2  1  1  0  0  0  0
  4  1  1  0  0  0  0
  4  5  1  0  0  0  0
  6  4  1  0  0  0  0
  8 11  1  0  0  0  0
  8 10  1  0  0  0  0
  9  8  1  0  0  0  0
 11 13  1  0  0  0  0
 12 11  1  0  0  0  0
 14  4  1  0  0  0  0
 14 11  1  0  0  0  0
M  END
$$$$
Title Card Required
 OpenBabel06272217483D

 14 13  0  0  0  0  0  0  0  0999 V2000
   -1.1066    0.4836    0.1096 C   0  0  0  0  0  0  0  0  0  0  0  0
   -0.4647    1.1705   -0.5999 H   0  0  0  0  0  0  0  0  0  0  0  0
   -0.4663    0.6207    1.0899 H   0  0  0  0  0  0  0  0  0  0  0  0
   -1.3231   -0.8688   -0.3589 C   0  0  0  0  0  0  0  0  0  0  0  0
   -0.8058   -1.6054    0.3540 H   0  0  0  0  0  0  0  0  0  0  0  0
   -0.9948   -1.0627   -1.4250 H   0  0  0  0  0  0  0  0  0  0  0  0
    2.1027    0.1006    0.0319 Br  0  0  0  0  0 15  0  0  0  0  0  0
   -2.7235    1.1652    0.1377 C   0  0  0  0  0  0  0  0  0  0  0  0
   -2.8493    1.5285   -0.8851 H   0  0  0  0  0  0  0  0  0  0  0  0
   -3.0026    2.1292    0.6468 H   0  0  0  0  0  0  0  0  0  0  0  0
   -3.5295   -0.1983    0.4253 C   0  0  0  0  0  0  0  0  0  0  0  0
   -4.5701   -0.1794   -0.1284 H   0  0  0  0  0  0  0  0  0  0  0  0
   -3.6497   -0.4532    1.4373 H   0  0  0  0  0  0  0  0  0  0  0  0
   -2.8017   -1.0682   -0.4237 O   0  0  0  0  0  0  0  0  0  0  0  0
  1  8  1  0  0  0  0
  1  3  1  0  0  0  0
  2  1  1  0  0  0  0
  4  1  1  0  0  0  0
  4  5  1  0  0  0  0
  6  4  1  0  0  0  0
  8 11  1  0  0  0  0
  8 10  1  0  0  0  0
  9  8  1  0  0  0  0
 11 13  1  0  0  0  0
 12 11  1  0  0  0  0
 14  4  1  0  0  0  0
 14 11  1  0  0  0  0
M  END
$$$$
Title Card Required
 OpenBabel06272217483D

 14 13  0  0  0  0  0  0  0  0999 V2000
   -1.1167    0.4795    0.1021 C   0  0  0  0  0  0  0  0  0  0  0  0
   -0.4433    1.2043   -0.5801 H   0  0  0  0  0  0  0  0  0  0  0  0
   -0.4577    0.5925    1.0817 H   0  0  0  0  0  0  0  0  0  0  0  0
   -1.3066   -0.8630   -0.3581 C   0  0  0  0  0  0  0  0  0  0  0  0
   -0.7828   -1.5787    0.3634 H   0  0  0  0  0  0  0  0  0  0  0  0
   -0.9886   -1.0666   -1.3761 H   0  0  0  0  0  0  0  0  0  0  0  0
    2.1089    0.1016    0.0323 Br  0  0  0  0  0 15  0  0  0  0  0  0
   -2.7211    1.1555    0.1427 C   0  0  0  0  0  0  0  0  0  0  0  0
   -2.9265    1.5884   -0.8485 H   0  0  0  0  0  0  0  0  0  0  0  0
   -2.9826    2.1082    0.6533 H   0  0  0  0  0  0  0  0  0  0  0  0
   -3.5444   -0.1695    0.4287 C   0  0  0  0  0  0  0  0  0  0  0  0
   -4.5361   -0.2331   -0.0894 H   0  0  0  0  0  0  0  0  0  0  0  0
   -3.6810   -0.4322    1.4442 H   0  0  0  0  0  0  0  0  0  0  0  0
   -2.8282   -1.0910   -0.4368 O   0  0  0  0  0  0  0  0  0  0  0  0
  1  8  1  0  0  0  0
  1  3  1  0  0  0  0
  2  1  1  0  0  0  0
  4  1  1  0  0  0  0
  4  5  1  0  0  0  0
  6  4  1  0  0  0  0
  8 11  1  0  0  0  0
  8 10  1  0  0  0  0
  9  8  1  0  0  0  0
 11 13  1  0  0  0  0
 12 11  1  0  0  0  0
 14  4  1  0  0  0  0
 14 11  1  0  0  0  0
M  END
$$$$
Title Card Required
 OpenBabel06272217483D

 14 13  0  0  0  0  0  0  0  0999 V2000
   -1.1263    0.4817    0.0958 C   0  0  0  0  0  0  0  0  0  0  0  0
   -0.4383    1.2187   -0.5478 H   0  0  0  0  0  0  0  0  0  0  0  0
   -0.4678    0.5595    1.0560 H   0  0  0  0  0  0  0  0  0  0  0  0
   -1.2917   -0.8598   -0.3570 C   0  0  0  0  0  0  0  0  0  0  0  0
   -0.7682   -1.5468    0.3627 H   0  0  0  0  0  0  0  0  0  0  0  0
   -0.9788   -1.0713   -1.3291 H   0  0  0  0  0  0  0  0  0  0  0  0
    2.1153    0.1026    0.0326 Br  0  0  0  0  0 15  0  0  0  0  0  0
   -2.7175    1.1445    0.1479 C   0  0  0  0  0  0  0  0  0  0  0  0
   -3.0054    1.6381   -0.8176 H   0  0  0  0  0  0  0  0  0  0  0  0
   -2.9549    2.0788    0.6731 H   0  0  0  0  0  0  0  0  0  0  0  0
   -3.5587   -0.1391    0.4280 C   0  0  0  0  0  0  0  0  0  0  0  0
   -4.4996   -0.2814   -0.0426 H   0  0  0  0  0  0  0  0  0  0  0  0
   -3.7088   -0.4164    1.4687 H   0  0  0  0  0  0  0  0  0  0  0  0
   -2.8540   -1.1142   -0.4491 O   0  0  0  0  0  0  0  0  0  0  0  0
  1  8  1  0  0  0  0
  1  3  1  0  0  0  0
  2  1  1  0  0  0  0
  4  1  1  0  0  0  0
  4  5  1  0  0  0  0
  6  4  1  0  0  0  0
  8 11  1  0  0  0  0
  8 10  1  0  0  0  0
  9  8  1  0  0  0  0
 11 13  1  0  0  0  0
 12 11  1  0  0  0  0
 14  4  1  0  0  0  0
 14 11  1  0  0  0  0
M  END
$$$$
Title Card Required
 OpenBabel06272217483D

 14 13  0  0  0  0  0  0  0  0999 V2000
   -1.1359    0.4906    0.0904 C   0  0  0  0  0  0  0  0  0  0  0  0
   -0.4513    1.2126   -0.5047 H   0  0  0  0  0  0  0  0  0  0  0  0
   -0.4973    0.5232    1.0165 H   0  0  0  0  0  0  0  0  0  0  0  0
   -1.2795   -0.8593   -0.3547 C   0  0  0  0  0  0  0  0  0  0  0  0
   -0.7614   -1.5130    0.3551 H   0  0  0  0  0  0  0  0  0  0  0  0
   -0.9602   -1.0801   -1.3019 H   0  0  0  0  0  0  0  0  0  0  0  0
    2.1219    0.1036    0.0330 Br  0  0  0  0  0 15  0  0  0  0  0  0
   -2.7131    1.1323    0.1527 C   0  0  0  0  0  0  0  0  0  0  0  0
   -3.0820    1.6739   -0.7894 H   0  0  0  0  0  0  0  0  0  0  0  0
   -2.9191    2.0436    0.7119 H   0  0  0  0  0  0  0  0  0  0  0  0
   -3.5710   -0.1078    0.4246 C   0  0  0  0  0  0  0  0  0  0  0  0
   -4.4806   -0.3213    0.0015 H   0  0  0  0  0  0  0  0  0  0  0  0
   -3.7297   -0.4028    1.5018 H   0  0  0  0  0  0  0  0  0  0  0  0
   -2.8793   -1.1380   -0.4602 O   0  0  0  0  0  0  0  0  0  0  0  0
  1  8  1  0  0  0  0
  1  3  1  0  0  0  0
  2  1  1  0  0  0  0
  4  1  1  0  0  0  0
  4  5  1  0  0  0  0
  6  4  1  0  0  0  0
  8 11  1  0  0  0  0
  8 10  1  0  0  0  0
  9  8  1  0  0  0  0
 11 13  1  0  0  0  0
 12 11  1  0  0  0  0
 14  4  1  0  0  0  0
 14 11  1  0  0  0  0
M  END
$$$$
Title Card Required
 OpenBabel06272217483D

 14 13  0  0  0  0  0  0  0  0999 V2000
   -1.1463    0.5059    0.0856 C   0  0  0  0  0  0  0  0  0  0  0  0
   -0.4799    1.1897   -0.4579 H   0  0  0  0  0  0  0  0  0  0  0  0
   -0.5428    0.4872    0.9747 H   0  0  0  0  0  0  0  0  0  0  0  0
   -1.2710   -0.8610   -0.3512 C   0  0  0  0  0  0  0  0  0  0  0  0
   -0.7597   -1.4847    0.3473 H   0  0  0  0  0  0  0  0  0  0  0  0
   -0.9296   -1.0953   -1.3077 H   0  0  0  0  0  0  0  0  0  0  0  0
    2.1289    0.1047    0.0334 Br  0  0  0  0  0 15  0  0  0  0  0  0
   -2.7082    1.1197    0.1566 C   0  0  0  0  0  0  0  0  0  0  0  0
   -3.1495    1.6914   -0.7600 H   0  0  0  0  0  0  0  0  0  0  0  0
   -2.8752    2.0044    0.7728 H   0  0  0  0  0  0  0  0  0  0  0  0
   -3.5798   -0.0774    0.4203 C   0  0  0  0  0  0  0  0  0  0  0  0
   -4.4992   -0.3506    0.0319 H   0  0  0  0  0  0  0  0  0  0  0  0
   -3.7392   -0.3876    1.5305 H   0  0  0  0  0  0  0  0  0  0  0  0
   -2.9033   -1.1615   -0.4699 O   0  0  0  0  0  0  0  0  0  0  0  0
  1  8  1  0  0  0  0
  1  3  1  0  0  0  0
  2  1  1  0  0  0  0
  4  1  1  0  0  0  0
  4  5  1  0  0  0  0
  6  4  1  0  0  0  0
  8 11  1  0  0  0  0
  8 10  1  0  0  0  0
  9  8  1  0  0  0  0
 11 13  1  0  0  0  0
 12 11  1  0  0  0  0
 14  4  1  0  0  0  0
 14 11  1  0  0  0  0
M  END
$$$$
Title Card Required
 OpenBabel06272217483D

 14 13  0  0  0  0  0  0  0  0999 V2000
   -1.1595    0.5259    0.0808 C   0  0  0  0  0  0  0  0  0  0  0  0
   -0.5129    1.1627   -0.4211 H   0  0  0  0  0  0  0  0  0  0  0  0
   -0.5950    0.4549    0.9511 H   0  0  0  0  0  0  0  0  0  0  0  0
   -1.2670   -0.8646   -0.3479 C   0  0  0  0  0  0  0  0  0  0  0  0
   -0.7586   -1.4710    0.3487 H   0  0  0  0  0  0  0  0  0  0  0  0
   -0.8902   -1.1152   -1.3402 H   0  0  0  0  0  0  0  0  0  0  0  0
    2.1361    0.1058    0.0339 Br  0  0  0  0  0 15  0  0  0  0  0  0
   -2.7030    1.1078    0.1591 C   0  0  0  0  0  0  0  0  0  0  0  0
   -3.2001    1.6882   -0.7260 H   0  0  0  0  0  0  0  0  0  0  0  0
   -2.8237    1.9599    0.8542 H   0  0  0  0  0  0  0  0  0  0  0  0
   -3.5854   -0.0499    0.4162 C   0  0  0  0  0  0  0  0  0  0  0  0
   -4.5556   -0.3647    0.0471 H   0  0  0  0  0  0  0  0  0  0  0  0
   -3.7337   -0.3675    1.5434 H   0  0  0  0  0  0  0  0  0  0  0  0
   -2.9255   -1.1840   -0.4775 O   0  0  0  0  0  0  0  0  0  0  0  0
  1  8  1  0  0  0  0
  1  3  1  0  0  0  0
  2  1  1  0  0  0  0
  4  1  1  0  0  0  0
  4  5  1  0  0  0  0
  6  4  1  0  0  0  0
  8 11  1  0  0  0  0
  8 10  1  0  0  0  0
  9  8  1  0  0  0  0
 11 13  1  0  0  0  0
 12 11  1  0  0  0  0
 14  4  1  0  0  0  0
 14 11  1  0  0  0  0
M  END
$$$$
Title Card Required
 OpenBabel06272217483D

 14 13  0  0  0  0  0  0  0  0999 V2000
   -1.1783    0.5483    0.0756 C   0  0  0  0  0  0  0  0  0  0  0  0
   -0.5310    1.1525   -0.4126 H   0  0  0  0  0  0  0  0  0  0  0  0
   -0.6454    0.4287    0.9658 H   0  0  0  0  0  0  0  0  0  0  0  0
   -1.2676   -0.8699   -0.3476 C   0  0  0  0  0  0  0  0  0  0  0  0
   -0.7558   -1.4774    0.3655 H   0  0  0  0  0  0  0  0  0  0  0  0
   -0.8504   -1.1345   -1.3782 H   0  0  0  0  0  0  0  0  0  0  0  0
    2.1436    0.1069    0.0343 Br  0  0  0  0  0 15  0  0  0  0  0  0
   -2.6977    1.0980    0.1606 C   0  0  0  0  0  0  0  0  0  0  0  0
   -3.2275    1.6659   -0.6861 H   0  0  0  0  0  0  0  0  0  0  0  0
   -2.7653    1.9050    0.9494 H   0  0  0  0  0  0  0  0  0  0  0  0
   -3.5897   -0.0277    0.4124 C   0  0  0  0  0  0  0  0  0  0  0  0
   -4.6292   -0.3542    0.0537 H   0  0  0  0  0  0  0  0  0  0  0  0
   -3.7114   -0.3407    1.5338 H   0  0  0  0  0  0  0  0  0  0  0  0
   -2.9457   -1.2052   -0.4827 O   0  0  0  0  0  0  0  0  0  0  0  0
  1  8  1  0  0  0  0
  1  3  1  0  0  0  0
  2  1  1  0  0  0  0
  4  1  1  0  0  0  0
  4  5  1  0  0  0  0
  6  4  1  0  0  0  0
  8 11  1  0  0  0  0
  8 10  1  0  0  0  0
  9  8  1  0  0  0  0
 11 13  1  0  0  0  0
 12 11  1  0  0  0  0
 14  4  1  0  0  0  0
 14 11  1  0  0  0  0
M  END
$$$$
Title Card Required
 OpenBabel06272217483D

 14 13  0  0  0  0  0  0  0  0999 V2000
   -1.2028    0.5697    0.0709 C   0  0  0  0  0  0  0  0  0  0  0  0
   -0.5207    1.1717   -0.4413 H   0  0  0  0  0  0  0  0  0  0  0  0
   -0.6923    0.4131    1.0177 H   0  0  0  0  0  0  0  0  0  0  0  0
   -1.2723   -0.8768   -0.3517 C   0  0  0  0  0  0  0  0  0  0  0  0
   -0.7547   -1.4999    0.3927 H   0  0  0  0  0  0  0  0  0  0  0  0
   -0.8210   -1.1472   -1.3992 H   0  0  0  0  0  0  0  0  0  0  0  0
    2.1511    0.1079    0.0348 Br  0  0  0  0  0 15  0  0  0  0  0  0
   -2.6924    1.0920    0.1620 C   0  0  0  0  0  0  0  0  0  0  0  0
   -3.2285    1.6329   -0.6456 H   0  0  0  0  0  0  0  0  0  0  0  0
   -2.7053    1.8371    1.0420 H   0  0  0  0  0  0  0  0  0  0  0  0
   -3.5947   -0.0138    0.4087 C   0  0  0  0  0  0  0  0  0  0  0  0
   -4.6915   -0.3116    0.0591 H   0  0  0  0  0  0  0  0  0  0  0  0
   -3.6744   -0.3099    1.5024 H   0  0  0  0  0  0  0  0  0  0  0  0
   -2.9628   -1.2237   -0.4852 O   0  0  0  0  0  0  0  0  0  0  0  0
  1  8  1  0  0  0  0
  1  3  1  0  0  0  0
  2  1  1  0  0  0  0
  4  1  1  0  0  0  0
  4  5  1  0  0  0  0
  6  4  1  0  0  0  0
  8 11  1  0  0  0  0
  8 10  1  0  0  0  0
  9  8  1  0  0  0  0
 11 13  1  0  0  0  0
 12 11  1  0  0  0  0
 14  4  1  0  0  0  0
 14 11  1  0  0  0  0
M  END
$$$$
Title Card Required
 OpenBabel06272217483D

 14 13  0  0  0  0  0  0  0  0999 V2000
   -1.2300    0.5890    0.0672 C   0  0  0  0  0  0  0  0  0  0  0  0
   -0.4948    1.2072   -0.4916 H   0  0  0  0  0  0  0  0  0  0  0  0
   -0.7431    0.4126    1.0825 H   0  0  0  0  0  0  0  0  0  0  0  0
   -1.2799   -0.8855   -0.3596 C   0  0  0  0  0  0  0  0  0  0  0  0
   -0.7622   -1.5270    0.4179 H   0  0  0  0  0  0  0  0  0  0  0  0
   -0.8072   -1.1513   -1.3939 H   0  0  0  0  0  0  0  0  0  0  0  0
    2.1584    0.1090    0.0352 Br  0  0  0  0  0 15  0  0  0  0  0  0
   -2.6868    1.0899    0.1649 C   0  0  0  0  0  0  0  0  0  0  0  0
   -3.2081    1.6030   -0.6141 H   0  0  0  0  0  0  0  0  0  0  0  0
   -2.6493    1.7576    1.1182 H   0  0  0  0  0  0  0  0  0  0  0  0
   -3.6013   -0.0089    0.4043 C   0  0  0  0  0  0  0  0  0  0  0  0
   -4.7262   -0.2377    0.0671 H   0  0  0  0  0  0  0  0  0  0  0  0
   -3.6278   -0.2806    1.4598 H   0  0  0  0  0  0  0  0  0  0  0  0
   -2.9766   -1.2388   -0.4850 O   0  0  0  0  0  0  0  0  0  0  0  0
  1  8  1  0  0  0  0
  1  3  1  0  0  0  0
  2  1  1  0  0  0  0
  4  1  1  0  0  0  0
  4  5  1  0  0  0  0
  6  4  1  0  0  0  0
  8 11  1  0  0  0  0
  8 10  1  0  0  0  0
  9  8  1  0  0  0  0
 11 13  1  0  0  0  0
 12 11  1  0  0  0  0
 14  4  1  0  0  0  0
 14 11  1  0  0  0  0
M  END
$$$$
Title Card Required
 OpenBabel06272217483D

 14 13  0  0  0  0  0  0  0  0999 V2000
   -1.2573    0.6067    0.0643 C   0  0  0  0  0  0  0  0  0  0  0  0
   -0.4755    1.2392   -0.5420 H   0  0  0  0  0  0  0  0  0  0  0  0
   -0.8051    0.4309    1.1364 H   0  0  0  0  0  0  0  0  0  0  0  0
   -1.2903   -0.8961   -0.3699 C   0  0  0  0  0  0  0  0  0  0  0  0
   -0.7841   -1.5495    0.4308 H   0  0  0  0  0  0  0  0  0  0  0  0
   -0.8093   -1.1476   -1.3640 H   0  0  0  0  0  0  0  0  0  0  0  0
    2.1659    0.1101    0.0357 Br  0  0  0  0  0 15  0  0  0  0  0  0
   -2.6806    1.0909    0.1707 C   0  0  0  0  0  0  0  0  0  0  0  0
   -3.1751    1.5909   -0.6028 H   0  0  0  0  0  0  0  0  0  0  0  0
   -2.6010    1.6691    1.1715 H   0  0  0  0  0  0  0  0  0  0  0  0
   -3.6095   -0.0124    0.3977 C   0  0  0  0  0  0  0  0  0  0  0  0
   -4.7288   -0.1352    0.0790 H   0  0  0  0  0  0  0  0  0  0  0  0
   -3.5758   -0.2597    1.4229 H   0  0  0  0  0  0  0  0  0  0  0  0
   -2.9878   -1.2509   -0.4822 O   0  0  0  0  0  0  0  0  0  0  0  0
  1  8  1  0  0  0  0
  1  3  1  0  0  0  0
  2  1  1  0  0  0  0
  4  1  1  0  0  0  0
  4  5  1  0  0  0  0
  6  4  1  0  0  0  0
  8 11  1  0  0  0  0
  8 10  1  0  0  0  0
  9  8  1  0  0  0  0
 11 13  1  0  0  0  0
 12 11  1  0  0  0  0
 14  4  1  0  0  0  0
 14 11  1  0  0  0  0
M  END
$$$$
Title Card Required
 OpenBabel06272217483D

 14 13  0  0  0  0  0  0  0  0999 V2000
   -1.2816    0.6223    0.0622 C   0  0  0  0  0  0  0  0  0  0  0  0
   -0.4790    1.2537   -0.5752 H   0  0  0  0  0  0  0  0  0  0  0  0
   -0.8772    0.4684    1.1625 H   0  0  0  0  0  0  0  0  0  0  0  0
   -1.3037   -0.9080   -0.3808 C   0  0  0  0  0  0  0  0  0  0  0  0
   -0.8223   -1.5617    0.4262 H   0  0  0  0  0  0  0  0  0  0  0  0
   -0.8238   -1.1393   -1.3217 H   0  0  0  0  0  0  0  0  0  0  0  0
    2.1734    0.1111    0.0361 Br  0  0  0  0  0 15  0  0  0  0  0  0
   -2.6743    1.0940    0.1803 C   0  0  0  0  0  0  0  0  0  0  0  0
   -3.1372    1.6076   -0.6182 H   0  0  0  0  0  0  0  0  0  0  0  0
   -2.5662    1.5818    1.1983 H   0  0  0  0  0  0  0  0  0  0  0  0
   -3.6181   -0.0231    0.3876 C   0  0  0  0  0  0  0  0  0  0  0  0
   -4.7028   -0.0132    0.0938 H   0  0  0  0  0  0  0  0  0  0  0  0
   -3.5233   -0.2548    1.4097 H   0  0  0  0  0  0  0  0  0  0  0  0
   -2.9961   -1.2597   -0.4771 O   0  0  0  0  0  0  0  0  0  0  0  0
  1  8  1  0  0  0  0
  1  3  1  0  0  0  0
  2  1  1  0  0  0  0
  4  1  1  0  0  0  0
  4  5  1  0  0  0  0
  6  4  1  0  0  0  0
  8 11  1  0  0  0  0
  8 10  1  0  0  0  0
  9  8  1  0  0  0  0
 11 13  1  0  0  0  0
 12 11  1  0  0  0  0
 14  4  1  0  0  0  0
 14 11  1  0  0  0  0
M  END
$$$$
Title Card Required
 OpenBabel06272217483D

 14 13  0  0  0  0  0  0  0  0999 V2000
   -1.3009    0.6345    0.0604 C   0  0  0  0  0  0  0  0  0  0  0  0
   -0.5096    1.2472   -0.5838 H   0  0  0  0  0  0  0  0  0  0  0  0
   -0.9509    0.5198    1.1559 H   0  0  0  0  0  0  0  0  0  0  0  0
   -1.3207   -0.9194   -0.3897 C   0  0  0  0  0  0  0  0  0  0  0  0
   -0.8731   -1.5637    0.4065 H   0  0  0  0  0  0  0  0  0  0  0  0
   -0.8414   -1.1321   -1.2901 H   0  0  0  0  0  0  0  0  0  0  0  0
    2.1807    0.1121    0.0365 Br  0  0  0  0  0 15  0  0  0  0  0  0
   -2.6692    1.0985    0.1920 C   0  0  0  0  0  0  0  0  0  0  0  0
   -3.0961    1.6502   -0.6502 H   0  0  0  0  0  0  0  0  0  0  0  0
   -2.5493    1.5093    1.2040 H   0  0  0  0  0  0  0  0  0  0  0  0
   -3.6249   -0.0394    0.3746 C   0  0  0  0  0  0  0  0  0  0  0  0
   -4.6632    0.1146    0.1083 H   0  0  0  0  0  0  0  0  0  0  0  0
   -3.4762   -0.2678    1.4218 H   0  0  0  0  0  0  0  0  0  0  0  0
   -3.0019   -1.2650   -0.4700 O   0  0  0  0  0  0  0  0  0  0  0  0
  1  8  1  0  0  0  0
  1  3  1  0  0  0  0
  2  1  1  0  0  0  0
  4  1  1  0  0  0  0
  4  5  1  0  0  0  0
  6  4  1  0  0  0  0
  8 11  1  0  0  0  0
  8 10  1  0  0  0  0
  9  8  1  0  0  0  0
 11 13  1  0  0  0  0
 12 11  1  0  0  0  0
 14  4  1  0  0  0  0
 14 11  1  0  0  0  0
M  END
$$$$
Title Card Required
 OpenBabel06272217483D

 14 13  0  0  0  0  0  0  0  0999 V2000
   -1.3151    0.6429    0.0585 C   0  0  0  0  0  0  0  0  0  0  0  0
   -0.5628    1.2237   -0.5698 H   0  0  0  0  0  0  0  0  0  0  0  0
   -1.0168    0.5786    1.1235 H   0  0  0  0  0  0  0  0  0  0  0  0
   -1.3422   -0.9291   -0.3954 C   0  0  0  0  0  0  0  0  0  0  0  0
   -0.9307   -1.5609    0.3802 H   0  0  0  0  0  0  0  0  0  0  0  0
   -0.8532   -1.1309   -1.2884 H   0  0  0  0  0  0  0  0  0  0  0  0
    2.1878    0.1131    0.0370 Br  0  0  0  0  0 15  0  0  0  0  0  0
   -2.6668    1.1040    0.2035 C   0  0  0  0  0  0  0  0  0  0  0  0
   -3.0488    1.7077   -0.6799 H   0  0  0  0  0  0  0  0  0  0  0  0
   -2.5514    1.4619    1.2016 H   0  0  0  0  0  0  0  0  0  0  0  0
   -3.6278   -0.0598    0.3601 C   0  0  0  0  0  0  0  0  0  0  0  0
   -4.6279    0.2401    0.1188 H   0  0  0  0  0  0  0  0  0  0  0  0
   -3.4396   -0.2945    1.4431 H   0  0  0  0  0  0  0  0  0  0  0  0
   -3.0054   -1.2670   -0.4614 O   0  0  0  0  0  0  0  0  0  0  0  0
  1  8  1  0  0  0  0
  1  3  1  0  0  0  0
  2  1  1  0  0  0  0
  4  1  1  0  0  0  0
  4  5  1  0  0  0  0
  6  4  1  0  0  0  0
  8 11  1  0  0  0  0
  8 10  1  0  0  0  0
  9  8  1  0  0  0  0
 11 13  1  0  0  0  0
 12 11  1  0  0  0  0
 14  4  1  0  0  0  0
 14 11  1  0  0  0  0
M  END
$$$$
Title Card Required
 OpenBabel06272217483D

 14 13  0  0  0  0  0  0  0  0999 V2000
   -1.3253    0.6467    0.0559 C   0  0  0  0  0  0  0  0  0  0  0  0
   -0.6276    1.1920   -0.5424 H   0  0  0  0  0  0  0  0  0  0  0  0
   -1.0643    0.6386    1.0811 H   0  0  0  0  0  0  0  0  0  0  0  0
   -1.3694   -0.9361   -0.3983 C   0  0  0  0  0  0  0  0  0  0  0  0
   -0.9883   -1.5623    0.3592 H   0  0  0  0  0  0  0  0  0  0  0  0
   -0.8585   -1.1361   -1.3186 H   0  0  0  0  0  0  0  0  0  0  0  0
    2.1950    0.1141    0.0374 Br  0  0  0  0  0 15  0  0  0  0  0  0
   -2.6681    1.1106    0.2123 C   0  0  0  0  0  0  0  0  0  0  0  0
   -2.9940    1.7689   -0.6915 H   0  0  0  0  0  0  0  0  0  0  0  0
   -2.5729    1.4467    1.2054 H   0  0  0  0  0  0  0  0  0  0  0  0
   -3.6256   -0.0838    0.3454 C   0  0  0  0  0  0  0  0  0  0  0  0
   -4.6051    0.3580    0.1242 H   0  0  0  0  0  0  0  0  0  0  0  0
   -3.4183   -0.3302    1.4564 H   0  0  0  0  0  0  0  0  0  0  0  0
   -3.0072   -1.2657   -0.4514 O   0  0  0  0  0  0  0  0  0  0  0  0
  1  8  1  0  0  0  0
  1  3  1  0  0  0  0
  2  1  1  0  0  0  0
  4  1  1  0  0  0  0
  4  5  1  0  0  0  0
  6  4  1  0  0  0  0
  8 11  1  0  0  0  0
  8 10  1  0  0  0  0
  9  8  1  0  0  0  0
 11 13  1  0  0  0  0
 12 11  1  0  0  0  0
 14  4  1  0  0  0  0
 14 11  1  0  0  0  0
M  END
$$$$
Title Card Required
 OpenBabel06272217483D

 14 13  0  0  0  0  0  0  0  0999 V2000
   -1.3336    0.6446    0.0521 C   0  0  0  0  0  0  0  0  0  0  0  0
   -0.6835    1.1678   -0.5199 H   0  0  0  0  0  0  0  0  0  0  0  0
   -1.0820    0.6946    1.0511 H   0  0  0  0  0  0  0  0  0  0  0  0
   -1.4025   -0.9398   -0.4005 C   0  0  0  0  0  0  0  0  0  0  0  0
   -1.0401   -1.5767    0.3543 H   0  0  0  0  0  0  0  0  0  0  0  0
   -0.8665   -1.1446   -1.3655 H   0  0  0  0  0  0  0  0  0  0  0  0
    2.2023    0.1151    0.0378 Br  0  0  0  0  0 15  0  0  0  0  0  0
   -2.6736    1.1184    0.2173 C   0  0  0  0  0  0  0  0  0  0  0  0
   -2.9339    1.8264   -0.6754 H   0  0  0  0  0  0  0  0  0  0  0  0
   -2.6149    1.4673    1.2231 H   0  0  0  0  0  0  0  0  0  0  0  0
   -3.6183   -0.1108    0.3312 C   0  0  0  0  0  0  0  0  0  0  0  0
   -4.5888    0.4591    0.1257 H   0  0  0  0  0  0  0  0  0  0  0  0
   -3.4163   -0.3713    1.4499 H   0  0  0  0  0  0  0  0  0  0  0  0
   -3.0076   -1.2612   -0.4401 O   0  0  0  0  0  0  0  0  0  0  0  0
  1  8  1  0  0  0  0
  1  3  1  0  0  0  0
  2  1  1  0  0  0  0
  4  1  1  0  0  0  0
  4  5  1  0  0  0  0
  6  4  1  0  0  0  0
  8 11  1  0  0  0  0
  8 10  1  0  0  0  0
  9  8  1  0  0  0  0
 11 13  1  0  0  0  0
 12 11  1  0  0  0  0
 14  4  1  0  0  0  0
 14 11  1  0  0  0  0
M  END
$$$$
Title Card Required
 OpenBabel06272217483D

 14 13  0  0  0  0  0  0  0  0999 V2000
   -1.3421    0.6352    0.0480 C   0  0  0  0  0  0  0  0  0  0  0  0
   -0.7050    1.1699   -0.5262 H   0  0  0  0  0  0  0  0  0  0  0  0
   -1.0620    0.7405    1.0511 H   0  0  0  0  0  0  0  0  0  0  0  0
   -1.4396   -0.9400   -0.4035 C   0  0  0  0  0  0  0  0  0  0  0  0
   -1.0814   -1.6047    0.3665 H   0  0  0  0  0  0  0  0  0  0  0  0
   -0.8884   -1.1517   -1.4049 H   0  0  0  0  0  0  0  0  0  0  0  0
    2.2096    0.1161    0.0382 Br  0  0  0  0  0 15  0  0  0  0  0  0
   -2.6828    1.1271    0.2188 C   0  0  0  0  0  0  0  0  0  0  0  0
   -2.8768    1.8729   -0.6314 H   0  0  0  0  0  0  0  0  0  0  0  0
   -2.6753    1.5179    1.2480 H   0  0  0  0  0  0  0  0  0  0  0  0
   -3.6073   -0.1379    0.3181 C   0  0  0  0  0  0  0  0  0  0  0  0
   -4.5691    0.5248    0.1246 H   0  0  0  0  0  0  0  0  0  0  0  0
   -3.4351   -0.4127    1.4205 H   0  0  0  0  0  0  0  0  0  0  0  0
   -3.0066   -1.2535   -0.4283 O   0  0  0  0  0  0  0  0  0  0  0  0
  1  8  1  0  0  0  0
  1  3  1  0  0  0  0
  2  1  1  0  0  0  0
  4  1  1  0  0  0  0
  4  5  1  0  0  0  0
  6  4  1  0  0  0  0
  8 11  1  0  0  0  0
  8 10  1  0  0  0  0
  9  8  1  0  0  0  0
 11 13  1  0  0  0  0
 12 11  1  0  0  0  0
 14  4  1  0  0  0  0
 14 11  1  0  0  0  0
M  END
$$$$
Title Card Required
 OpenBabel06272217483D

 14 13  0  0  0  0  0  0  0  0999 V2000
   -1.3502    0.6205    0.0448 C   0  0  0  0  0  0  0  0  0  0  0  0
   -0.6931    1.1954   -0.5611 H   0  0  0  0  0  0  0  0  0  0  0  0
   -1.0128    0.7717    1.0713 H   0  0  0  0  0  0  0  0  0  0  0  0
   -1.4765   -0.9382   -0.4072 C   0  0  0  0  0  0  0  0  0  0  0  0
   -1.1130   -1.6350    0.3832 H   0  0  0  0  0  0  0  0  0  0  0  0
   -0.9276   -1.1549   -1.4218 H   0  0  0  0  0  0  0  0  0  0  0  0
    2.2164    0.1170    0.0386 Br  0  0  0  0  0 15  0  0  0  0  0  0
   -2.6938    1.1361    0.2186 C   0  0  0  0  0  0  0  0  0  0  0  0
   -2.8331    1.9064   -0.5728 H   0  0  0  0  0  0  0  0  0  0  0  0
   -2.7441    1.5809    1.2638 H   0  0  0  0  0  0  0  0  0  0  0  0
   -3.5951   -0.1618    0.3069 C   0  0  0  0  0  0  0  0  0  0  0  0
   -4.5428    0.5446    0.1208 H   0  0  0  0  0  0  0  0  0  0  0  0
   -3.4692   -0.4494    1.3776 H   0  0  0  0  0  0  0  0  0  0  0  0
   -3.0046   -1.2436   -0.4173 O   0  0  0  0  0  0  0  0  0  0  0  0
  1  8  1  0  0  0  0
  1  3  1  0  0  0  0
  2  1  1  0  0  0  0
  4  1  1  0  0  0  0
  4  5  1  0  0  0  0
  6  4  1  0  0  0  0
  8 11  1  0  0  0  0
  8 10  1  0  0  0  0
  9  8  1  0  0  0  0
 11 13  1  0  0  0  0
 12 11  1  0  0  0  0
 14  4  1  0  0  0  0
 14 11  1  0  0  0  0
M  END
$$$$
Title Card Required
 OpenBabel06272217483D

 14 13  0  0  0  0  0  0  0  0999 V2000
   -1.3565    0.6033    0.0427 C   0  0  0  0  0  0  0  0  0  0  0  0
   -0.6705    1.2246   -0.6061 H   0  0  0  0  0  0  0  0  0  0  0  0
   -0.9473    0.7878    1.0903 H   0  0  0  0  0  0  0  0  0  0  0  0
   -1.5127   -0.9357   -0.4106 C   0  0  0  0  0  0  0  0  0  0  0  0
   -1.1398   -1.6578    0.3925 H   0  0  0  0  0  0  0  0  0  0  0  0
   -0.9827   -1.1541   -1.4164 H   0  0  0  0  0  0  0  0  0  0  0  0
    2.2229    0.1178    0.0389 Br  0  0  0  0  0 15  0  0  0  0  0  0
   -2.7057    1.1451    0.2191 C   0  0  0  0  0  0  0  0  0  0  0  0
   -2.8057    1.9333   -0.5130 H   0  0  0  0  0  0  0  0  0  0  0  0
   -2.8158    1.6442    1.2623 H   0  0  0  0  0  0  0  0  0  0  0  0
   -3.5828   -0.1819    0.2968 C   0  0  0  0  0  0  0  0  0  0  0  0
   -4.5119    0.5222    0.1129 H   0  0  0  0  0  0  0  0  0  0  0  0
   -3.5135   -0.4816    1.3338 H   0  0  0  0  0  0  0  0  0  0  0  0
   -3.0019   -1.2322   -0.4074 O   0  0  0  0  0  0  0  0  0  0  0  0
  1  8  1  0  0  0  0
  1  3  1  0  0  0  0
  2  1  1  0  0  0  0
  4 14  1  0  0  0  0
  4  1  1  0  0  0  0
  4  5  1  0  0  0  0
  6  4  1  0  0  0  0
  8 11  1  0  0  0  0
  8 10  1  0  0  0  0
  9  8  1  0  0  0  0
 11 13  1  0  0  0  0
 12 11  1  0  0  0  0
 14 11  1  0  0  0  0
M  END
$$$$
Title Card Required
 OpenBabel06272217483D

 14 13  0  0  0  0  0  0  0  0999 V2000
   -1.3599    0.5855    0.0418 C   0  0  0  0  0  0  0  0  0  0  0  0
   -0.6543    1.2419   -0.6467 H   0  0  0  0  0  0  0  0  0  0  0  0
   -0.8745    0.7876    1.0930 H   0  0  0  0  0  0  0  0  0  0  0  0
   -1.5488   -0.9332   -0.4131 C   0  0  0  0  0  0  0  0  0  0  0  0
   -1.1646   -1.6681    0.3885 H   0  0  0  0  0  0  0  0  0  0  0  0
   -1.0516   -1.1506   -1.3938 H   0  0  0  0  0  0  0  0  0  0  0  0
    2.2294    0.1187    0.0392 Br  0  0  0  0  0 15  0  0  0  0  0  0
   -2.7180    1.1537    0.2217 C   0  0  0  0  0  0  0  0  0  0  0  0
   -2.7959    1.9612   -0.4631 H   0  0  0  0  0  0  0  0  0  0  0  0
   -2.8870    1.7011    1.2413 H   0  0  0  0  0  0  0  0  0  0  0  0
   -3.5708   -0.1982    0.2872 C   0  0  0  0  0  0  0  0  0  0  0  0
   -4.4811    0.4616    0.0980 H   0  0  0  0  0  0  0  0  0  0  0  0
   -3.5651   -0.5114    1.3012 H   0  0  0  0  0  0  0  0  0  0  0  0
   -2.9983   -1.2196   -0.3988 O   0  0  0  0  0  0  0  0  0  0  0  0
  1  8  1  0  0  0  0
  1  3  1  0  0  0  0
  2  1  1  0  0  0  0
  4 14  1  0  0  0  0
  4  1  1  0  0  0  0
  4  5  1  0  0  0  0
  6  4  1  0  0  0  0
  8 11  1  0  0  0  0
  8 10  1  0  0  0  0
  9  8  1  0  0  0  0
 11 13  1  0  0  0  0
 12 11  1  0  0  0  0
 14 11  1  0  0  0  0
M  END
$$$$
Title Card Required
 OpenBabel06272217483D

 14 13  0  0  0  0  0  0  0  0999 V2000
   -1.3597    0.5687    0.0420 C   0  0  0  0  0  0  0  0  0  0  0  0
   -0.6537    1.2382   -0.6743 H   0  0  0  0  0  0  0  0  0  0  0  0
   -0.8028    0.7702    1.0716 H   0  0  0  0  0  0  0  0  0  0  0  0
   -1.5843   -0.9309   -0.4137 C   0  0  0  0  0  0  0  0  0  0  0  0
   -1.1876   -1.6643    0.3699 H   0  0  0  0  0  0  0  0  0  0  0  0
   -1.1282   -1.1463   -1.3644 H   0  0  0  0  0  0  0  0  0  0  0  0
    2.2358    0.1195    0.0396 Br  0  0  0  0  0 15  0  0  0  0  0  0
   -2.7302    1.1614    0.2272 C   0  0  0  0  0  0  0  0  0  0  0  0
   -2.8045    1.9940   -0.4326 H   0  0  0  0  0  0  0  0  0  0  0  0
   -2.9530    1.7460    1.2037 H   0  0  0  0  0  0  0  0  0  0  0  0
   -3.5597   -0.2099    0.2779 C   0  0  0  0  0  0  0  0  0  0  0  0
   -4.4594    0.3693    0.0727 H   0  0  0  0  0  0  0  0  0  0  0  0
   -3.6214   -0.5390    1.2895 H   0  0  0  0  0  0  0  0  0  0  0  0
   -2.9940   -1.2063   -0.3920 O   0  0  0  0  0  0  0  0  0  0  0  0
  1  8  1  0  0  0  0
  1  3  1  0  0  0  0
  2  1  1  0  0  0  0
  4 14  1  0  0  0  0
  4  1  1  0  0  0  0
  4  5  1  0  0  0  0
  6  4  1  0  0  0  0
  8 11  1  0  0  0  0
  8 10  1  0  0  0  0
  9  8  1  0  0  0  0
 11 13  1  0  0  0  0
 12 11  1  0  0  0  0
 14 11  1  0  0  0  0
M  END
$$$$
Title Card Required
 OpenBabel06272217483D

 14 13  0  0  0  0  0  0  0  0999 V2000
   -1.3560    0.5541    0.0431 C   0  0  0  0  0  0  0  0  0  0  0  0
   -0.6713    1.2111   -0.6861 H   0  0  0  0  0  0  0  0  0  0  0  0
   -0.7389    0.7362    1.0259 H   0  0  0  0  0  0  0  0  0  0  0  0
   -1.6185   -0.9289   -0.4116 C   0  0  0  0  0  0  0  0  0  0  0  0
   -1.2069   -1.6487    0.3399 H   0  0  0  0  0  0  0  0  0  0  0  0
   -1.2024   -1.1443   -1.3439 H   0  0  0  0  0  0  0  0  0  0  0  0
    2.2421    0.1204    0.0399 Br  0  0  0  0  0 15  0  0  0  0  0  0
   -2.7417    1.1678    0.2351 C   0  0  0  0  0  0  0  0  0  0  0  0
   -2.8298    2.0282   -0.4244 H   0  0  0  0  0  0  0  0  0  0  0  0
   -3.0096    1.7758    1.1572 H   0  0  0  0  0  0  0  0  0  0  0  0
   -3.5498   -0.2169    0.2702 C   0  0  0  0  0  0  0  0  0  0  0  0
   -4.4590    0.2577    0.0333 H   0  0  0  0  0  0  0  0  0  0  0  0
   -3.6788   -0.5626    1.2984 H   0  0  0  0  0  0  0  0  0  0  0  0
   -2.9892   -1.1933   -0.3876 O   0  0  0  0  0  0  0  0  0  0  0  0
  1  8  1  0  0  0  0
  1  3  1  0  0  0  0
  2  1  1  0  0  0  0
  4 14  1  0  0  0  0
  4  1  1  0  0  0  0
  4  5  1  0  0  0  0
  6  4  1  0  0  0  0
  8 11  1  0  0  0  0
  8 10  1  0  0  0  0
  9  8  1  0  0  0  0
 11 13  1  0  0  0  0
 12 11  1  0  0  0  0
 14 11  1  0  0  0  0
M  END
$$$$
Title Card Required
 OpenBabel06272217483D

 14 13  0  0  0  0  0  0  0  0999 V2000
   -1.3498    0.5421    0.0450 C   0  0  0  0  0  0  0  0  0  0  0  0
   -0.7044    1.1641   -0.6846 H   0  0  0  0  0  0  0  0  0  0  0  0
   -0.6858    0.6889    0.9624 H   0  0  0  0  0  0  0  0  0  0  0  0
   -1.6502   -0.9268   -0.4066 C   0  0  0  0  0  0  0  0  0  0  0  0
   -1.2196   -1.6276    0.3056 H   0  0  0  0  0  0  0  0  0  0  0  0
   -1.2660   -1.1468   -1.3451 H   0  0  0  0  0  0  0  0  0  0  0  0
    2.2482    0.1212    0.0402 Br  0  0  0  0  0 15  0  0  0  0  0  0
   -2.7521    1.1731    0.2443 C   0  0  0  0  0  0  0  0  0  0  0  0
   -2.8676    2.0550   -0.4346 H   0  0  0  0  0  0  0  0  0  0  0  0
   -3.0548    1.7915    1.1121 H   0  0  0  0  0  0  0  0  0  0  0  0
   -3.5417   -0.2195    0.2654 C   0  0  0  0  0  0  0  0  0  0  0  0
   -4.4876    0.1384   -0.0213 H   0  0  0  0  0  0  0  0  0  0  0  0
   -3.7333   -0.5787    1.3183 H   0  0  0  0  0  0  0  0  0  0  0  0
   -2.9843   -1.1813   -0.3857 O   0  0  0  0  0  0  0  0  0  0  0  0
  1  8  1  0  0  0  0
  1  3  1  0  0  0  0
  2  1  1  0  0  0  0
  4 14  1  0  0  0  0
  4  1  1  0  0  0  0
  4  5  1  0  0  0  0
  6  4  1  0  0  0  0
  8 11  1  0  0  0  0
  8 10  1  0  0  0  0
  9  8  1  0  0  0  0
 11 13  1  0  0  0  0
 12 11  1  0  0  0  0
 14 11  1  0  0  0  0
M  END
$$$$
Title Card Required
 OpenBabel06272217483D

 14 13  0  0  0  0  0  0  0  0999 V2000
   -1.3423    0.5323    0.0472 C   0  0  0  0  0  0  0  0  0  0  0  0
   -0.7472    1.1046   -0.6769 H   0  0  0  0  0  0  0  0  0  0  0  0
   -0.6416    0.6319    0.8909 H   0  0  0  0  0  0  0  0  0  0  0  0
   -1.6789   -0.9243   -0.3997 C   0  0  0  0  0  0  0  0  0  0  0  0
   -1.2226   -1.6085    0.2749 H   0  0  0  0  0  0  0  0  0  0  0  0
   -1.3170   -1.1533   -1.3693 H   0  0  0  0  0  0  0  0  0  0  0  0
    2.2541    0.1220    0.0405 Br  0  0  0  0  0 15  0  0  0  0  0  0
   -2.7617    1.1774    0.2536 C   0  0  0  0  0  0  0  0  0  0  0  0
   -2.9135    2.0661   -0.4567 H   0  0  0  0  0  0  0  0  0  0  0  0
   -3.0901    1.7973    1.0778 H   0  0  0  0  0  0  0  0  0  0  0  0
   -3.5364   -0.2178    0.2642 C   0  0  0  0  0  0  0  0  0  0  0  0
   -4.5400    0.0160   -0.0879 H   0  0  0  0  0  0  0  0  0  0  0  0
   -3.7818   -0.5852    1.3389 H   0  0  0  0  0  0  0  0  0  0  0  0
   -2.9798   -1.1707   -0.3861 O   0  0  0  0  0  0  0  0  0  0  0  0
  1  8  1  0  0  0  0
  1  3  1  0  0  0  0
  2  1  1  0  0  0  0
  4 14  1  0  0  0  0
  4  1  1  0  0  0  0
  4  5  1  0  0  0  0
  6  4  1  0  0  0  0
  8 11  1  0  0  0  0
  8 10  1  0  0  0  0
  9  8  1  0  0  0  0
 11 13  1  0  0  0  0
 12 11  1  0  0  0  0
 14 11  1  0  0  0  0
M  END
$$$$
Title Card Required
 OpenBabel06272217483D

 14 13  0  0  0  0  0  0  0  0999 V2000
   -1.3348    0.5236    0.0498 C   0  0  0  0  0  0  0  0  0  0  0  0
   -0.7925    1.0408   -0.6744 H   0  0  0  0  0  0  0  0  0  0  0  0
   -0.5994    0.5663    0.8210 H   0  0  0  0  0  0  0  0  0  0  0  0
   -1.7040   -0.9209   -0.3923 C   0  0  0  0  0  0  0  0  0  0  0  0
   -1.2127   -1.5976    0.2533 H   0  0  0  0  0  0  0  0  0  0  0  0
   -1.3588   -1.1615   -1.4084 H   0  0  0  0  0  0  0  0  0  0  0  0
    2.2601    0.1228    0.0408 Br  0  0  0  0  0 15  0  0  0  0  0  0
   -2.7707    1.1810    0.2620 C   0  0  0  0  0  0  0  0  0  0  0  0
   -2.9650    2.0555   -0.4865 H   0  0  0  0  0  0  0  0  0  0  0  0
   -3.1183    1.7980    1.0613 H   0  0  0  0  0  0  0  0  0  0  0  0
   -3.5359   -0.2118    0.2666 C   0  0  0  0  0  0  0  0  0  0  0  0
   -4.6021   -0.1117   -0.1614 H   0  0  0  0  0  0  0  0  0  0  0  0
   -3.8228   -0.5805    1.3533 H   0  0  0  0  0  0  0  0  0  0  0  0
   -2.9762   -1.1615   -0.3886 O   0  0  0  0  0  0  0  0  0  0  0  0
  1  8  1  0  0  0  0
  1  3  1  0  0  0  0
  2  1  1  0  0  0  0
  4 14  1  0  0  0  0
  4  1  1  0  0  0  0
  4  5  1  0  0  0  0
  6  4  1  0  0  0  0
  8 11  1  0  0  0  0
  8 10  1  0  0  0  0
  9  8  1  0  0  0  0
 11 13  1  0  0  0  0
 12 11  1  0  0  0  0
 14 11  1  0  0  0  0
M  END
$$$$
Title Card Required
 OpenBabel06272217483D

 14 13  0  0  0  0  0  0  0  0999 V2000
   -1.3292    0.5145    0.0531 C   0  0  0  0  0  0  0  0  0  0  0  0
   -0.8304    0.9837   -0.6957 H   0  0  0  0  0  0  0  0  0  0  0  0
   -0.5500    0.4919    0.7632 H   0  0  0  0  0  0  0  0  0  0  0  0
   -1.7243   -0.9168   -0.3859 C   0  0  0  0  0  0  0  0  0  0  0  0
   -1.1873   -1.5992    0.2433 H   0  0  0  0  0  0  0  0  0  0  0  0
   -1.3950   -1.1673   -1.4510 H   0  0  0  0  0  0  0  0  0  0  0  0
    2.2666    0.1236    0.0411 Br  0  0  0  0  0 15  0  0  0  0  0  0
   -2.7797    1.1837    0.2693 C   0  0  0  0  0  0  0  0  0  0  0  0
   -3.0209    2.0161   -0.5209 H   0  0  0  0  0  0  0  0  0  0  0  0
   -3.1414    1.7969    1.0689 H   0  0  0  0  0  0  0  0  0  0  0  0
   -3.5430   -0.2012    0.2726 C   0  0  0  0  0  0  0  0  0  0  0  0
   -4.6578   -0.2450   -0.2342 H   0  0  0  0  0  0  0  0  0  0  0  0
   -3.8548   -0.5621    1.3563 H   0  0  0  0  0  0  0  0  0  0  0  0
   -2.9744   -1.1534   -0.3929 O   0  0  0  0  0  0  0  0  0  0  0  0
  1  8  1  0  0  0  0
  1  3  1  0  0  0  0
  2  1  1  0  0  0  0
  4  1  1  0  0  0  0
  4  5  1  0  0  0  0
  6  4  1  0  0  0  0
  8 11  1  0  0  0  0
  8 10  1  0  0  0  0
  9  8  1  0  0  0  0
 11 13  1  0  0  0  0
 12 11  1  0  0  0  0
 14  4  1  0  0  0  0
 14 11  1  0  0  0  0
M  END
$$$$
Title Card Required
 OpenBabel06272217483D

 14 13  0  0  0  0  0  0  0  0999 V2000
   -1.3274    0.5044    0.0575 C   0  0  0  0  0  0  0  0  0  0  0  0
   -0.8516    0.9459   -0.7562 H   0  0  0  0  0  0  0  0  0  0  0  0
   -0.4891    0.4130    0.7277 H   0  0  0  0  0  0  0  0  0  0  0  0
   -1.7361   -0.9125   -0.3823 C   0  0  0  0  0  0  0  0  0  0  0  0
   -1.1497   -1.6121    0.2430 H   0  0  0  0  0  0  0  0  0  0  0  0
   -1.4253   -1.1666   -1.4818 H   0  0  0  0  0  0  0  0  0  0  0  0
    2.2734    0.1246    0.0414 Br  0  0  0  0  0 15  0  0  0  0  0  0
   -2.7887    1.1853    0.2746 C   0  0  0  0  0  0  0  0  0  0  0  0
   -3.0759    1.9436   -0.5549 H   0  0  0  0  0  0  0  0  0  0  0  0
   -3.1570    1.7945    1.1023 H   0  0  0  0  0  0  0  0  0  0  0  0
   -3.5605   -0.1868    0.2816 C   0  0  0  0  0  0  0  0  0  0  0  0
   -4.6909   -0.3705   -0.2933 H   0  0  0  0  0  0  0  0  0  0  0  0
   -3.8738   -0.5292    1.3441 H   0  0  0  0  0  0  0  0  0  0  0  0
   -2.9758   -1.1469   -0.3987 O   0  0  0  0  0  0  0  0  0  0  0  0
  1  8  1  0  0  0  0
  1  3  1  0  0  0  0
  2  1  1  0  0  0  0
  4  1  1  0  0  0  0
  4  5  1  0  0  0  0
  6  4  1  0  0  0  0
  8 11  1  0  0  0  0
  8 10  1  0  0  0  0
  9  8  1  0  0  0  0
 11 13  1  0  0  0  0
 12 11  1  0  0  0  0
 14  4  1  0  0  0  0
 14 11  1  0  0  0  0
M  END
$$$$
Title Card Required
 OpenBabel06272217483D

 14 13  0  0  0  0  0  0  0  0999 V2000
   -1.3286    0.4943    0.0620 C   0  0  0  0  0  0  0  0  0  0  0  0
   -0.8608    0.9260   -0.8425 H   0  0  0  0  0  0  0  0  0  0  0  0
   -0.4268    0.3395    0.7118 H   0  0  0  0  0  0  0  0  0  0  0  0
   -1.7367   -0.9095   -0.3822 C   0  0  0  0  0  0  0  0  0  0  0  0
   -1.1109   -1.6287    0.2442 H   0  0  0  0  0  0  0  0  0  0  0  0
   -1.4469   -1.1566   -1.4900 H   0  0  0  0  0  0  0  0  0  0  0  0
    2.2803    0.1255    0.0418 Br  0  0  0  0  0 15  0  0  0  0  0  0
   -2.7979    1.1857    0.2783 C   0  0  0  0  0  0  0  0  0  0  0  0
   -3.1232    1.8445   -0.5835 H   0  0  0  0  0  0  0  0  0  0  0  0
   -3.1605    1.7873    1.1508 H   0  0  0  0  0  0  0  0  0  0  0  0
   -3.5884   -0.1705    0.2918 C   0  0  0  0  0  0  0  0  0  0  0  0
   -4.6939   -0.4688   -0.3268 H   0  0  0  0  0  0  0  0  0  0  0  0
   -3.8790   -0.4858    1.3207 H   0  0  0  0  0  0  0  0  0  0  0  0
   -2.9813   -1.1421   -0.4051 O   0  0  0  0  0  0  0  0  0  0  0  0
  1  8  1  0  0  0  0
  1  3  1  0  0  0  0
  2  1  1  0  0  0  0
  4  1  1  0  0  0  0
  4  5  1  0  0  0  0
  6  4  1  0  0  0  0
  8 11  1  0  0  0  0
  8 10  1  0  0  0  0
  9  8  1  0  0  0  0
 11 13  1  0  0  0  0
 12 11  1  0  0  0  0
 14  4  1  0  0  0  0
 14 11  1  0  0  0  0
M  END
$$$$
Title Card Required
 OpenBabel06272217483D

 14 13  0  0  0  0  0  0  0  0999 V2000
   -1.3307    0.4850    0.0650 C   0  0  0  0  0  0  0  0  0  0  0  0
   -0.8716    0.9125   -0.9242 H   0  0  0  0  0  0  0  0  0  0  0  0
   -0.3781    0.2800    0.7033 H   0  0  0  0  0  0  0  0  0  0  0  0
   -1.7259   -0.9088   -0.3854 C   0  0  0  0  0  0  0  0  0  0  0  0
   -1.0808   -1.6413    0.2394 H   0  0  0  0  0  0  0  0  0  0  0  0
   -1.4572   -1.1375   -1.4741 H   0  0  0  0  0  0  0  0  0  0  0  0
    2.2872    0.1264    0.0421 Br  0  0  0  0  0 15  0  0  0  0  0  0
   -2.8077    1.1845    0.2814 C   0  0  0  0  0  0  0  0  0  0  0  0
   -3.1606    1.7303   -0.6072 H   0  0  0  0  0  0  0  0  0  0  0  0
   -3.1478    1.7716    1.1997 H   0  0  0  0  0  0  0  0  0  0  0  0
   -3.6253   -0.1539    0.3015 C   0  0  0  0  0  0  0  0  0  0  0  0
   -4.6696   -0.5285   -0.3301 H   0  0  0  0  0  0  0  0  0  0  0  0
   -3.8750   -0.4387    1.2996 H   0  0  0  0  0  0  0  0  0  0  0  0
   -2.9911   -1.1386   -0.4114 O   0  0  0  0  0  0  0  0  0  0  0  0
  1  8  1  0  0  0  0
  1  3  1  0  0  0  0
  2  1  1  0  0  0  0
  4  1  1  0  0  0  0
  4  5  1  0  0  0  0
  6  4  1  0  0  0  0
  8 11  1  0  0  0  0
  8 10  1  0  0  0  0
  9  8  1  0  0  0  0
 11 13  1  0  0  0  0
 12 11  1  0  0  0  0
 14  4  1  0  0  0  0
 14 11  1  0  0  0  0
M  END
$$$$
Title Card Required
 OpenBabel06272217483D

 14 13  0  0  0  0  0  0  0  0999 V2000
   -1.3319    0.4772    0.0650 C   0  0  0  0  0  0  0  0  0  0  0  0
   -0.8923    0.8983   -0.9749 H   0  0  0  0  0  0  0  0  0  0  0  0
   -0.3559    0.2438    0.6933 H   0  0  0  0  0  0  0  0  0  0  0  0
   -1.7055   -0.9111   -0.3910 C   0  0  0  0  0  0  0  0  0  0  0  0
   -1.0658   -1.6463    0.2252 H   0  0  0  0  0  0  0  0  0  0  0  0
   -1.4527   -1.1117   -1.4415 H   0  0  0  0  0  0  0  0  0  0  0  0
    2.2943    0.1273    0.0425 Br  0  0  0  0  0 15  0  0  0  0  0  0
   -2.8181    1.1809    0.2850 C   0  0  0  0  0  0  0  0  0  0  0  0
   -3.1880    1.6177   -0.6311 H   0  0  0  0  0  0  0  0  0  0  0  0
   -3.1177    1.7464    1.2352 H   0  0  0  0  0  0  0  0  0  0  0  0
   -3.6690   -0.1382    0.3084 C   0  0  0  0  0  0  0  0  0  0  0  0
   -4.6260   -0.5405   -0.3022 H   0  0  0  0  0  0  0  0  0  0  0  0
   -3.8682   -0.3977    1.3018 H   0  0  0  0  0  0  0  0  0  0  0  0
   -3.0044   -1.1361   -0.4169 O   0  0  0  0  0  0  0  0  0  0  0  0
  1  8  1  0  0  0  0
  1  3  1  0  0  0  0
  2  1  1  0  0  0  0
  4  1  1  0  0  0  0
  4  5  1  0  0  0  0
  6  4  1  0  0  0  0
  8 11  1  0  0  0  0
  8 10  1  0  0  0  0
  9  8  1  0  0  0  0
 11 13  1  0  0  0  0
 12 11  1  0  0  0  0
 14  4  1  0  0  0  0
 14 11  1  0  0  0  0
M  END
$$$$
Title Card Required
 OpenBabel06272217483D

 14 13  0  0  0  0  0  0  0  0999 V2000
   -1.3317    0.4713    0.0615 C   0  0  0  0  0  0  0  0  0  0  0  0
   -0.9228    0.8830   -0.9827 H   0  0  0  0  0  0  0  0  0  0  0  0
   -0.3641    0.2366    0.6796 H   0  0  0  0  0  0  0  0  0  0  0  0
   -1.6798   -0.9161   -0.3973 C   0  0  0  0  0  0  0  0  0  0  0  0
   -1.0665   -1.6449    0.2037 H   0  0  0  0  0  0  0  0  0  0  0  0
   -1.4312   -1.0853   -1.4110 H   0  0  0  0  0  0  0  0  0  0  0  0
    2.3011    0.1282    0.0429 Br  0  0  0  0  0 15  0  0  0  0  0  0
   -2.8285    1.1744    0.2897 C   0  0  0  0  0  0  0  0  0  0  0  0
   -3.2057    1.5259   -0.6593 H   0  0  0  0  0  0  0  0  0  0  0  0
   -3.0745    1.7167    1.2492 H   0  0  0  0  0  0  0  0  0  0  0  0
   -3.7143   -0.1248    0.3118 C   0  0  0  0  0  0  0  0  0  0  0  0
   -4.5813   -0.5047   -0.2516 H   0  0  0  0  0  0  0  0  0  0  0  0
   -3.8632   -0.3705    1.3373 H   0  0  0  0  0  0  0  0  0  0  0  0
   -3.0193   -1.1341   -0.4212 O   0  0  0  0  0  0  0  0  0  0  0  0
  1  8  1  0  0  0  0
  1  3  1  0  0  0  0
  2  1  1  0  0  0  0
  4  1  1  0  0  0  0
  4  5  1  0  0  0  0
  6  4  1  0  0  0  0
  8 11  1  0  0  0  0
  8 10  1  0  0  0  0
  9  8  1  0  0  0  0
 11 13  1  0  0  0  0
 12 11  1  0  0  0  0
 14  4  1  0  0  0  0
 14 11  1  0  0  0  0
M  END
$$$$
Title Card Required
 OpenBabel06272217483D

 14 13  0  0  0  0  0  0  0  0999 V2000
   -1.3308    0.4670    0.0549 C   0  0  0  0  0  0  0  0  0  0  0  0
   -0.9588    0.8699   -0.9528 H   0  0  0  0  0  0  0  0  0  0  0  0
   -0.3965    0.2567    0.6650 H   0  0  0  0  0  0  0  0  0  0  0  0
   -1.6530   -0.9228   -0.4027 C   0  0  0  0  0  0  0  0  0  0  0  0
   -1.0771   -1.6430    0.1808 H   0  0  0  0  0  0  0  0  0  0  0  0
   -1.3930   -1.0631   -1.4014 H   0  0  0  0  0  0  0  0  0  0  0  0
    2.3077    0.1291    0.0432 Br  0  0  0  0  0 15  0  0  0  0  0  0
   -2.8384    1.1646    0.2948 C   0  0  0  0  0  0  0  0  0  0  0  0
   -3.2140    1.4615   -0.6902 H   0  0  0  0  0  0  0  0  0  0  0  0
   -3.0246    1.6896    1.2447 H   0  0  0  0  0  0  0  0  0  0  0  0
   -3.7569   -0.1140    0.3142 C   0  0  0  0  0  0  0  0  0  0  0  0
   -4.5637   -0.4342   -0.1978 H   0  0  0  0  0  0  0  0  0  0  0  0
   -3.8603   -0.3557    1.3926 H   0  0  0  0  0  0  0  0  0  0  0  0
   -3.0344   -1.1323   -0.4243 O   0  0  0  0  0  0  0  0  0  0  0  0
  1  8  1  0  0  0  0
  1  3  1  0  0  0  0
  2  1  1  0  0  0  0
  4  1  1  0  0  0  0
  4  5  1  0  0  0  0
  6  4  1  0  0  0  0
  8 11  1  0  0  0  0
  8 10  1  0  0  0  0
  9  8  1  0  0  0  0
 11 13  1  0  0  0  0
 12 11  1  0  0  0  0
 14  4  1  0  0  0  0
 14 11  1  0  0  0  0
M  END
$$$$
Title Card Required
 OpenBabel06272217483D

 14 13  0  0  0  0  0  0  0  0999 V2000
   -1.3303    0.4639    0.0458 C   0  0  0  0  0  0  0  0  0  0  0  0
   -0.9951    0.8643   -0.8986 H   0  0  0  0  0  0  0  0  0  0  0  0
   -0.4432    0.3009    0.6560 H   0  0  0  0  0  0  0  0  0  0  0  0
   -1.6271   -0.9304   -0.4070 C   0  0  0  0  0  0  0  0  0  0  0  0
   -1.0901   -1.6486    0.1636 H   0  0  0  0  0  0  0  0  0  0  0  0
   -1.3398   -1.0466   -1.4197 H   0  0  0  0  0  0  0  0  0  0  0  0
    2.3141    0.1299    0.0436 Br  0  0  0  0  0 15  0  0  0  0  0  0
   -2.8480    1.1512    0.2988 C   0  0  0  0  0  0  0  0  0  0  0  0
   -3.2116    1.4240   -0.7182 H   0  0  0  0  0  0  0  0  0  0  0  0
   -2.9722    1.6720    1.2298 H   0  0  0  0  0  0  0  0  0  0  0  0
   -3.7934   -0.1051    0.3195 C   0  0  0  0  0  0  0  0  0  0  0  0
   -4.6091   -0.3453   -0.1645 H   0  0  0  0  0  0  0  0  0  0  0  0
   -3.8599   -0.3488    1.4474 H   0  0  0  0  0  0  0  0  0  0  0  0
   -3.0494   -1.1306   -0.4265 O   0  0  0  0  0  0  0  0  0  0  0  0
  1  8  1  0  0  0  0
  1  3  1  0  0  0  0
  2  1  1  0  0  0  0
  4  1  1  0  0  0  0
  4  5  1  0  0  0  0
  6  4  1  0  0  0  0
  8 11  1  0  0  0  0
  8 10  1  0  0  0  0
  9  8  1  0  0  0  0
 11 13  1  0  0  0  0
 12 11  1  0  0  0  0
 14  4  1  0  0  0  0
 14 11  1  0  0  0  0
M  END
$$$$
Title Card Required
 OpenBabel06272217483D

 14 13  0  0  0  0  0  0  0  0999 V2000
   -1.3322    0.4613    0.0360 C   0  0  0  0  0  0  0  0  0  0  0  0
   -1.0220    0.8750   -0.8462 H   0  0  0  0  0  0  0  0  0  0  0  0
   -0.4881    0.3613    0.6619 H   0  0  0  0  0  0  0  0  0  0  0  0
   -1.6049   -0.9377   -0.4111 C   0  0  0  0  0  0  0  0  0  0  0  0
   -1.0984   -1.6681    0.1591 H   0  0  0  0  0  0  0  0  0  0  0  0
   -1.2808   -1.0364   -1.4547 H   0  0  0  0  0  0  0  0  0  0  0  0
    2.3203    0.1306    0.0439 Br  0  0  0  0  0 15  0  0  0  0  0  0
   -2.8566    1.1346    0.3004 C   0  0  0  0  0  0  0  0  0  0  0  0
   -3.1979    1.4131   -0.7354 H   0  0  0  0  0  0  0  0  0  0  0  0
   -2.9235    1.6711    1.2149 H   0  0  0  0  0  0  0  0  0  0  0  0
   -3.8202   -0.0984    0.3292 C   0  0  0  0  0  0  0  0  0  0  0  0
   -4.7223   -0.2505   -0.1609 H   0  0  0  0  0  0  0  0  0  0  0  0
   -3.8638   -0.3471    1.4836 H   0  0  0  0  0  0  0  0  0  0  0  0
   -3.0635   -1.1288   -0.4278 O   0  0  0  0  0  0  0  0  0  0  0  0
  1  8  1  0  0  0  0
  1  3  1  0  0  0  0
  2  1  1  0  0  0  0
  4  1  1  0  0  0  0
  4  5  1  0  0  0  0
  6  4  1  0  0  0  0
  8 11  1  0  0  0  0
  8 10  1  0  0  0  0
  9  8  1  0  0  0  0
 11 13  1  0  0  0  0
 12 11  1  0  0  0  0
 14  4  1  0  0  0  0
 14 11  1  0  0  0  0
M  END
$$$$
Title Card Required
 OpenBabel06272217483D

 14 13  0  0  0  0  0  0  0  0999 V2000
   -1.3376    0.4585    0.0272 C   0  0  0  0  0  0  0  0  0  0  0  0
   -1.0327    0.9092   -0.8190 H   0  0  0  0  0  0  0  0  0  0  0  0
   -0.5208    0.4315    0.6880 H   0  0  0  0  0  0  0  0  0  0  0  0
   -1.5867   -0.9444   -0.4163 C   0  0  0  0  0  0  0  0  0  0  0  0
   -1.1007   -1.7007    0.1670 H   0  0  0  0  0  0  0  0  0  0  0  0
   -1.2243   -1.0312   -1.4892 H   0  0  0  0  0  0  0  0  0  0  0  0
    2.3261    0.1314    0.0442 Br  0  0  0  0  0 15  0  0  0  0  0  0
   -2.8643    1.1155    0.2990 C   0  0  0  0  0  0  0  0  0  0  0  0
   -3.1745    1.4240   -0.7390 H   0  0  0  0  0  0  0  0  0  0  0  0
   -2.8803    1.6876    1.2047 H   0  0  0  0  0  0  0  0  0  0  0  0
   -3.8400   -0.0944    0.3417 C   0  0  0  0  0  0  0  0  0  0  0  0
   -4.8607   -0.1490   -0.1675 H   0  0  0  0  0  0  0  0  0  0  0  0
   -3.8731   -0.3487    1.4963 H   0  0  0  0  0  0  0  0  0  0  0  0
   -3.0768   -1.1266   -0.4285 O   0  0  0  0  0  0  0  0  0  0  0  0
  1  8  1  0  0  0  0
  1  3  1  0  0  0  0
  2  1  1  0  0  0  0
  4  1  1  0  0  0  0
  4  5  1  0  0  0  0
  6  4  1  0  0  0  0
  8 11  1  0  0  0  0
  8 10  1  0  0  0  0
  9  8  1  0  0  0  0
 11 13  1  0  0  0  0
 12 11  1  0  0  0  0
 14  4  1  0  0  0  0
 14 11  1  0  0  0  0
M  END
$$$$
Title Card Required
 OpenBabel06272217483D

 14 13  0  0  0  0  0  0  0  0999 V2000
   -1.3466    0.4552    0.0199 C   0  0  0  0  0  0  0  0  0  0  0  0
   -1.0267    0.9677   -0.8225 H   0  0  0  0  0  0  0  0  0  0  0  0
   -0.5422    0.5087    0.7329 H   0  0  0  0  0  0  0  0  0  0  0  0
   -1.5716   -0.9510   -0.4229 C   0  0  0  0  0  0  0  0  0  0  0  0
   -1.1002   -1.7401    0.1823 H   0  0  0  0  0  0  0  0  0  0  0  0
   -1.1749   -1.0305   -1.5117 H   0  0  0  0  0  0  0  0  0  0  0  0
    2.3317    0.1321    0.0446 Br  0  0  0  0  0 15  0  0  0  0  0  0
   -2.8710    1.0943    0.2952 C   0  0  0  0  0  0  0  0  0  0  0  0
   -3.1436    1.4523   -0.7296 H   0  0  0  0  0  0  0  0  0  0  0  0
   -2.8420    1.7173    1.1957 H   0  0  0  0  0  0  0  0  0  0  0  0
   -3.8565   -0.0930    0.3551 C   0  0  0  0  0  0  0  0  0  0  0  0
   -4.9845   -0.0408   -0.1654 H   0  0  0  0  0  0  0  0  0  0  0  0
   -3.8887   -0.3532    1.4871 H   0  0  0  0  0  0  0  0  0  0  0  0
   -3.0896   -1.1242   -0.4287 O   0  0  0  0  0  0  0  0  0  0  0  0
  1  8  1  0  0  0  0
  1  3  1  0  0  0  0
  2  1  1  0  0  0  0
  4  1  1  0  0  0  0
  4  5  1  0  0  0  0
  6  4  1  0  0  0  0
  8 11  1  0  0  0  0
  8 10  1  0  0  0  0
  9  8  1  0  0  0  0
 11 13  1  0  0  0  0
 12 11  1  0  0  0  0
 14  4  1  0  0  0  0
 14 11  1  0  0  0  0
M  END
$$$$
Title Card Required
 OpenBabel06272217483D

 14 13  0  0  0  0  0  0  0  0999 V2000
   -1.3582    0.4521    0.0138 C   0  0  0  0  0  0  0  0  0  0  0  0
   -1.0092    1.0424   -0.8436 H   0  0  0  0  0  0  0  0  0  0  0  0
   -0.5613    0.5909    0.7886 H   0  0  0  0  0  0  0  0  0  0  0  0
   -1.5586   -0.9578   -0.4311 C   0  0  0  0  0  0  0  0  0  0  0  0
   -1.1014   -1.7782    0.1988 H   0  0  0  0  0  0  0  0  0  0  0  0
   -1.1356   -1.0342   -1.5168 H   0  0  0  0  0  0  0  0  0  0  0  0
    2.3374    0.1328    0.0449 Br  0  0  0  0  0 15  0  0  0  0  0  0
   -2.8768    1.0715    0.2898 C   0  0  0  0  0  0  0  0  0  0  0  0
   -3.1077    1.4949   -0.7086 H   0  0  0  0  0  0  0  0  0  0  0  0
   -2.8081    1.7537    1.1813 H   0  0  0  0  0  0  0  0  0  0  0  0
   -3.8717   -0.0933    0.3687 C   0  0  0  0  0  0  0  0  0  0  0  0
   -5.0743    0.0700   -0.1470 H   0  0  0  0  0  0  0  0  0  0  0  0
   -3.9112   -0.3611    1.4604 H   0  0  0  0  0  0  0  0  0  0  0  0
   -3.1023   -1.1215   -0.4285 O   0  0  0  0  0  0  0  0  0  0  0  0
  1  8  1  0  0  0  0
  1  3  1  0  0  0  0
  2  1  1  0  0  0  0
  4 14  1  0  0  0  0
  4  1  1  0  0  0  0
  4  5  1  0  0  0  0
  6  4  1  0  0  0  0
  8 11  1  0  0  0  0
  8 10  1  0  0  0  0
  9  8  1  0  0  0  0
 11 13  1  0  0  0  0
 12 11  1  0  0  0  0
 14 11  1  0  0  0  0
M  END
$$$$
Title Card Required
 OpenBabel06272217483D

 14 13  0  0  0  0  0  0  0  0999 V2000
   -1.3714    0.4505    0.0082 C   0  0  0  0  0  0  0  0  0  0  0  0
   -0.9873    1.1206   -0.8639 H   0  0  0  0  0  0  0  0  0  0  0  0
   -0.5899    0.6753    0.8443 H   0  0  0  0  0  0  0  0  0  0  0  0
   -1.5471   -0.9657   -0.4405 C   0  0  0  0  0  0  0  0  0  0  0  0
   -1.1081   -1.8076    0.2107 H   0  0  0  0  0  0  0  0  0  0  0  0
   -1.1080   -1.0430   -1.5022 H   0  0  0  0  0  0  0  0  0  0  0  0
    2.3433    0.1335    0.0452 Br  0  0  0  0  0 15  0  0  0  0  0  0
   -2.8815    1.0473    0.2834 C   0  0  0  0  0  0  0  0  0  0  0  0
   -3.0688    1.5503   -0.6778 H   0  0  0  0  0  0  0  0  0  0  0  0
   -2.7790    1.7898    1.1546 H   0  0  0  0  0  0  0  0  0  0  0  0
   -3.8866   -0.0948    0.3815 C   0  0  0  0  0  0  0  0  0  0  0  0
   -5.1219    0.1799   -0.1096 H   0  0  0  0  0  0  0  0  0  0  0  0
   -3.9422   -0.3751    1.4237 H   0  0  0  0  0  0  0  0  0  0  0  0
   -3.1156   -1.1184   -0.4279 O   0  0  0  0  0  0  0  0  0  0  0  0
  1  8  1  0  0  0  0
  1  3  1  0  0  0  0
  2  1  1  0  0  0  0
  4 14  1  0  0  0  0
  4  1  1  0  0  0  0
  4  5  1  0  0  0  0
  6  4  1  0  0  0  0
  8 11  1  0  0  0  0
  8 10  1  0  0  0  0
  9  8  1  0  0  0  0
 11 13  1  0  0  0  0
 12 11  1  0  0  0  0
 14 11  1  0  0  0  0
M  END
$$$$
Title Card Required
 OpenBabel06272217483D

 14 13  0  0  0  0  0  0  0  0999 V2000
   -1.3851    0.4525    0.0029 C   0  0  0  0  0  0  0  0  0  0  0  0
   -0.9682    1.1876   -0.8666 H   0  0  0  0  0  0  0  0  0  0  0  0
   -0.6392    0.7557    0.8880 H   0  0  0  0  0  0  0  0  0  0  0  0
   -1.5372   -0.9751   -0.4508 C   0  0  0  0  0  0  0  0  0  0  0  0
   -1.1236   -1.8209    0.2134 H   0  0  0  0  0  0  0  0  0  0  0  0
   -1.0938   -1.0582   -1.4689 H   0  0  0  0  0  0  0  0  0  0  0  0
    2.3496    0.1343    0.0456 Br  0  0  0  0  0 15  0  0  0  0  0  0
   -2.8845    1.0225    0.2764 C   0  0  0  0  0  0  0  0  0  0  0  0
   -3.0306    1.6167   -0.6388 H   0  0  0  0  0  0  0  0  0  0  0  0
   -2.7569    1.8169    1.1102 H   0  0  0  0  0  0  0  0  0  0  0  0
   -3.9015   -0.0965    0.3923 C   0  0  0  0  0  0  0  0  0  0  0  0
   -5.1178    0.2832   -0.0512 H   0  0  0  0  0  0  0  0  0  0  0  0
   -3.9839   -0.4003    1.3918 H   0  0  0  0  0  0  0  0  0  0  0  0
   -3.1301   -1.1150   -0.4271 O   0  0  0  0  0  0  0  0  0  0  0  0
  1  8  1  0  0  0  0
  1  3  1  0  0  0  0
  2  1  1  0  0  0  0
  4 14  1  0  0  0  0
  4  1  1  0  0  0  0
  4  5  1  0  0  0  0
  6  4  1  0  0  0  0
  8 11  1  0  0  0  0
  8 10  1  0  0  0  0
  9  8  1  0  0  0  0
 11 13  1  0  0  0  0
 12 11  1  0  0  0  0
 14 11  1  0  0  0  0
M  END
$$$$
Title Card Required
 OpenBabel06272217483D

 14 13  0  0  0  0  0  0  0  0999 V2000
   -1.3981    0.4595   -0.0018 C   0  0  0  0  0  0  0  0  0  0  0  0
   -0.9587    1.2271   -0.8412 H   0  0  0  0  0  0  0  0  0  0  0  0
   -0.7133    0.8193    0.9069 H   0  0  0  0  0  0  0  0  0  0  0  0
   -1.5299   -0.9852   -0.4599 C   0  0  0  0  0  0  0  0  0  0  0  0
   -1.1483   -1.8135    0.2048 H   0  0  0  0  0  0  0  0  0  0  0  0
   -1.0922   -1.0810   -1.4299 H   0  0  0  0  0  0  0  0  0  0  0  0
    2.3562    0.1351    0.0460 Br  0  0  0  0  0 15  0  0  0  0  0  0
   -2.8851    0.9992    0.2695 C   0  0  0  0  0  0  0  0  0  0  0  0
   -3.0001    1.6855   -0.5954 H   0  0  0  0  0  0  0  0  0  0  0  0
   -2.7450    1.8260    1.0507 H   0  0  0  0  0  0  0  0  0  0  0  0
   -3.9157   -0.0975    0.3986 C   0  0  0  0  0  0  0  0  0  0  0  0
   -5.0546    0.3669    0.0244 H   0  0  0  0  0  0  0  0  0  0  0  0
   -4.0359   -0.4415    1.3842 H   0  0  0  0  0  0  0  0  0  0  0  0
   -3.1454   -1.1116   -0.4261 O   0  0  0  0  0  0  0  0  0  0  0  0
  1  8  1  0  0  0  0
  1  3  1  0  0  0  0
  2  1  1  0  0  0  0
  4 14  1  0  0  0  0
  4  1  1  0  0  0  0
  4  5  1  0  0  0  0
  6  4  1  0  0  0  0
  8 11  1  0  0  0  0
  8 10  1  0  0  0  0
  9  8  1  0  0  0  0
 11 13  1  0  0  0  0
 12 11  1  0  0  0  0
 14 11  1  0  0  0  0
M  END
$$$$
Title Card Required
 OpenBabel06272217483D

 14 13  0  0  0  0  0  0  0  0999 V2000
   -1.4096    0.4714   -0.0054 C   0  0  0  0  0  0  0  0  0  0  0  0
   -0.9614    1.2307   -0.7901 H   0  0  0  0  0  0  0  0  0  0  0  0
   -0.8036    0.8548    0.8988 H   0  0  0  0  0  0  0  0  0  0  0  0
   -1.5270   -0.9942   -0.4655 C   0  0  0  0  0  0  0  0  0  0  0  0
   -1.1774   -1.7910    0.1907 H   0  0  0  0  0  0  0  0  0  0  0  0
   -1.0969   -1.1107   -1.4096 H   0  0  0  0  0  0  0  0  0  0  0  0
    2.3628    0.1359    0.0464 Br  0  0  0  0  0 15  0  0  0  0  0  0
   -2.8827    0.9802    0.2630 C   0  0  0  0  0  0  0  0  0  0  0  0
   -2.9850    1.7431   -0.5535 H   0  0  0  0  0  0  0  0  0  0  0  0
   -2.7447    1.8150    0.9901 H   0  0  0  0  0  0  0  0  0  0  0  0
   -3.9275   -0.0971    0.4002 C   0  0  0  0  0  0  0  0  0  0  0  0
   -4.9436    0.4191    0.1039 H   0  0  0  0  0  0  0  0  0  0  0  0
   -4.0915   -0.4943    1.4018 H   0  0  0  0  0  0  0  0  0  0  0  0
   -3.1608   -1.1087   -0.4254 O   0  0  0  0  0  0  0  0  0  0  0  0
  1  8  1  0  0  0  0
  1  3  1  0  0  0  0
  2  1  1  0  0  0  0
  4 14  1  0  0  0  0
  4  1  1  0  0  0  0
  4  5  1  0  0  0  0
  6  4  1  0  0  0  0
  8 11  1  0  0  0  0
  8 10  1  0  0  0  0
  9  8  1  0  0  0  0
 11 13  1  0  0  0  0
 12 11  1  0  0  0  0
 14 11  1  0  0  0  0
M  END
$$$$
Title Card Required
 OpenBabel06272217483D

 14 13  0  0  0  0  0  0  0  0999 V2000
   -1.4203    0.4870   -0.0082 C   0  0  0  0  0  0  0  0  0  0  0  0
   -0.9736    1.2042   -0.7241 H   0  0  0  0  0  0  0  0  0  0  0  0
   -0.8989    0.8619    0.8747 H   0  0  0  0  0  0  0  0  0  0  0  0
   -1.5295   -1.0003   -0.4669 C   0  0  0  0  0  0  0  0  0  0  0  0
   -1.2052   -1.7662    0.1826 H   0  0  0  0  0  0  0  0  0  0  0  0
   -1.1023   -1.1475   -1.4219 H   0  0  0  0  0  0  0  0  0  0  0  0
    2.3694    0.1367    0.0467 Br  0  0  0  0  0 15  0  0  0  0  0  0
   -2.8775    0.9659    0.2562 C   0  0  0  0  0  0  0  0  0  0  0  0
   -2.9886    1.7822   -0.5171 H   0  0  0  0  0  0  0  0  0  0  0  0
   -2.7537    1.7903    0.9439 H   0  0  0  0  0  0  0  0  0  0  0  0
   -3.9356   -0.0965    0.3996 C   0  0  0  0  0  0  0  0  0  0  0  0
   -4.8110    0.4445    0.1735 H   0  0  0  0  0  0  0  0  0  0  0  0
   -4.1441   -0.5498    1.4260 H   0  0  0  0  0  0  0  0  0  0  0  0
   -3.1765   -1.1065   -0.4251 O   0  0  0  0  0  0  0  0  0  0  0  0
  1  8  1  0  0  0  0
  1  3  1  0  0  0  0
  2  1  1  0  0  0  0
  4 14  1  0  0  0  0
  4  1  1  0  0  0  0
  4  5  1  0  0  0  0
  6  4  1  0  0  0  0
  8 11  1  0  0  0  0
  8 10  1  0  0  0  0
  9  8  1  0  0  0  0
 11 13  1  0  0  0  0
 12 11  1  0  0  0  0
 14 11  1  0  0  0  0
M  END
$$$$
Title Card Required
 OpenBabel06272217483D

 14 13  0  0  0  0  0  0  0  0999 V2000
   -1.4343    0.5059   -0.0108 C   0  0  0  0  0  0  0  0  0  0  0  0
   -0.9863    1.1586   -0.6585 H   0  0  0  0  0  0  0  0  0  0  0  0
   -0.9928    0.8401    0.8582 H   0  0  0  0  0  0  0  0  0  0  0  0
   -1.5398   -1.0015   -0.4651 C   0  0  0  0  0  0  0  0  0  0  0  0
   -1.2278   -1.7529    0.1973 H   0  0  0  0  0  0  0  0  0  0  0  0
   -1.1140   -1.1959   -1.4684 H   0  0  0  0  0  0  0  0  0  0  0  0
    2.3771    0.1376    0.0471 Br  0  0  0  0  0 15  0  0  0  0  0  0
   -2.8685    0.9548    0.2472 C   0  0  0  0  0  0  0  0  0  0  0  0
   -3.0200    1.7975   -0.4885 H   0  0  0  0  0  0  0  0  0  0  0  0
   -2.7723    1.7583    0.9308 H   0  0  0  0  0  0  0  0  0  0  0  0
   -3.9351   -0.0991    0.4001 C   0  0  0  0  0  0  0  0  0  0  0  0
   -4.7007    0.4708    0.2146 H   0  0  0  0  0  0  0  0  0  0  0  0
   -4.1919   -0.6035    1.4378 H   0  0  0  0  0  0  0  0  0  0  0  0
   -3.1956   -1.1049   -0.4257 O   0  0  0  0  0  0  0  0  0  0  0  0
  1  8  1  0  0  0  0
  1  3  1  0  0  0  0
  2  1  1  0  0  0  0
  4 14  1  0  0  0  0
  4  1  1  0  0  0  0
  4  5  1  0  0  0  0
  6  4  1  0  0  0  0
  8 11  1  0  0  0  0
  8 10  1  0  0  0  0
  9  8  1  0  0  0  0
 11 13  1  0  0  0  0
 12 11  1  0  0  0  0
 14 11  1  0  0  0  0
M  END
$$$$
Title Card Required
 OpenBabel06272217483D

 14 13  0  0  0  0  0  0  0  0999 V2000
   -1.4541    0.5202   -0.0126 C   0  0  0  0  0  0  0  0  0  0  0  0
   -0.9685    1.1404   -0.6515 H   0  0  0  0  0  0  0  0  0  0  0  0
   -1.0413    0.7940    0.8990 H   0  0  0  0  0  0  0  0  0  0  0  0
   -1.5587   -0.9956   -0.4623 C   0  0  0  0  0  0  0  0  0  0  0  0
   -1.2377   -1.7615    0.2440 H   0  0  0  0  0  0  0  0  0  0  0  0
   -1.1457   -1.2433   -1.5147 H   0  0  0  0  0  0  0  0  0  0  0  0
    2.3853    0.1386    0.0476 Br  0  0  0  0  0 15  0  0  0  0  0  0
   -2.8567    0.9499    0.2367 C   0  0  0  0  0  0  0  0  0  0  0  0
   -3.0847    1.7759   -0.4820 H   0  0  0  0  0  0  0  0  0  0  0  0
   -2.7968    1.7325    0.9797 H   0  0  0  0  0  0  0  0  0  0  0  0
   -3.9176   -0.1106    0.4051 C   0  0  0  0  0  0  0  0  0  0  0  0
   -4.7167    0.5394    0.1860 H   0  0  0  0  0  0  0  0  0  0  0  0
   -4.2172   -0.6333    1.4160 H   0  0  0  0  0  0  0  0  0  0  0  0
   -3.2162   -1.1045   -0.4277 O   0  0  0  0  0  0  0  0  0  0  0  0
  1  8  1  0  0  0  0
  1  3  1  0  0  0  0
  2  1  1  0  0  0  0
  4 14  1  0  0  0  0
  4  1  1  0  0  0  0
  4  5  1  0  0  0  0
  6  4  1  0  0  0  0
  8 11  1  0  0  0  0
  8 10  1  0  0  0  0
  9  8  1  0  0  0  0
 11 13  1  0  0  0  0
 12 11  1  0  0  0  0
 14 11  1  0  0  0  0
M  END
$$$$
Title Card Required
 OpenBabel06272217483D

 14 13  0  0  0  0  0  0  0  0999 V2000
   -1.4727    0.5257   -0.0130 C   0  0  0  0  0  0  0  0  0  0  0  0
   -0.9252    1.1563   -0.6957 H   0  0  0  0  0  0  0  0  0  0  0  0
   -1.0412    0.7404    0.9706 H   0  0  0  0  0  0  0  0  0  0  0  0
   -1.5787   -0.9874   -0.4601 C   0  0  0  0  0  0  0  0  0  0  0  0
   -1.2417   -1.7686    0.2878 H   0  0  0  0  0  0  0  0  0  0  0  0
   -1.1917   -1.2717   -1.5245 H   0  0  0  0  0  0  0  0  0  0  0  0
    2.3918    0.1394    0.0479 Br  0  0  0  0  0 15  0  0  0  0  0  0
   -2.8474    0.9522    0.2289 C   0  0  0  0  0  0  0  0  0  0  0  0
   -3.1546    1.7344   -0.4952 H   0  0  0  0  0  0  0  0  0  0  0  0
   -2.8190    1.7121    1.0536 H   0  0  0  0  0  0  0  0  0  0  0  0
   -3.8953   -0.1238    0.4107 C   0  0  0  0  0  0  0  0  0  0  0  0
   -4.7858    0.5924    0.1243 H   0  0  0  0  0  0  0  0  0  0  0  0
   -4.2166   -0.6347    1.3757 H   0  0  0  0  0  0  0  0  0  0  0  0
   -3.2325   -1.1052   -0.4304 O   0  0  0  0  0  0  0  0  0  0  0  0
  1  8  1  0  0  0  0
  1  3  1  0  0  0  0
  2  1  1  0  0  0  0
  4 14  1  0  0  0  0
  4  1  1  0  0  0  0
  4  5  1  0  0  0  0
  6  4  1  0  0  0  0
  8 11  1  0  0  0  0
  8 10  1  0  0  0  0
  9  8  1  0  0  0  0
 11 13  1  0  0  0  0
 12 11  1  0  0  0  0
 14 11  1  0  0  0  0
M  END
$$$$
Title Card Required
 OpenBabel06272217483D

 14 13  0  0  0  0  0  0  0  0999 V2000
   -1.4884    0.5280   -0.0124 C   0  0  0  0  0  0  0  0  0  0  0  0
   -0.8790    1.1743   -0.7473 H   0  0  0  0  0  0  0  0  0  0  0  0
   -1.0227    0.6744    1.0359 H   0  0  0  0  0  0  0  0  0  0  0  0
   -1.6009   -0.9789   -0.4574 C   0  0  0  0  0  0  0  0  0  0  0  0
   -1.2478   -1.7608    0.3182 H   0  0  0  0  0  0  0  0  0  0  0  0
   -1.2499   -1.2875   -1.5067 H   0  0  0  0  0  0  0  0  0  0  0  0
    2.3979    0.1401    0.0482 Br  0  0  0  0  0 15  0  0  0  0  0  0
   -2.8405    0.9600    0.2240 C   0  0  0  0  0  0  0  0  0  0  0  0
   -3.2270    1.6810   -0.5194 H   0  0  0  0  0  0  0  0  0  0  0  0
   -2.8414    1.6836    1.1286 H   0  0  0  0  0  0  0  0  0  0  0  0
   -3.8726   -0.1360    0.4147 C   0  0  0  0  0  0  0  0  0  0  0  0
   -4.8439    0.6048    0.0563 H   0  0  0  0  0  0  0  0  0  0  0  0
   -4.2020   -0.6220    1.3318 H   0  0  0  0  0  0  0  0  0  0  0  0
   -3.2473   -1.1066   -0.4336 O   0  0  0  0  0  0  0  0  0  0  0  0
  1  8  1  0  0  0  0
  1  3  1  0  0  0  0
  2  1  1  0  0  0  0
  4 14  1  0  0  0  0
  4  1  1  0  0  0  0
  4  5  1  0  0  0  0
  6  4  1  0  0  0  0
  8 11  1  0  0  0  0
  8 10  1  0  0  0  0
  9  8  1  0  0  0  0
 11 13  1  0  0  0  0
 12 11  1  0  0  0  0
 14 11  1  0  0  0  0
M  END
$$$$
Title Card Required
 OpenBabel06272217483D

 14 13  0  0  0  0  0  0  0  0999 V2000
   -1.4996    0.5289   -0.0111 C   0  0  0  0  0  0  0  0  0  0  0  0
   -0.8440    1.1774   -0.7837 H   0  0  0  0  0  0  0  0  0  0  0  0
   -0.9984    0.5945    1.0743 H   0  0  0  0  0  0  0  0  0  0  0  0
   -1.6269   -0.9704   -0.4536 C   0  0  0  0  0  0  0  0  0  0  0  0
   -1.2592   -1.7332    0.3318 H   0  0  0  0  0  0  0  0  0  0  0  0
   -1.3188   -1.2936   -1.4682 H   0  0  0  0  0  0  0  0  0  0  0  0
    2.4039    0.1409    0.0485 Br  0  0  0  0  0 15  0  0  0  0  0  0
   -2.8368    0.9738    0.2226 C   0  0  0  0  0  0  0  0  0  0  0  0
   -3.2994    1.6179   -0.5507 H   0  0  0  0  0  0  0  0  0  0  0  0
   -2.8652    1.6416    1.1919 H   0  0  0  0  0  0  0  0  0  0  0  0
   -3.8493   -0.1465    0.4150 C   0  0  0  0  0  0  0  0  0  0  0  0
   -4.8777    0.5717   -0.0097 H   0  0  0  0  0  0  0  0  0  0  0  0
   -4.1803   -0.6046    1.2998 H   0  0  0  0  0  0  0  0  0  0  0  0
   -3.2613   -1.1087   -0.4373 O   0  0  0  0  0  0  0  0  0  0  0  0
  1  8  1  0  0  0  0
  1  3  1  0  0  0  0
  2  1  1  0  0  0  0
  4 14  1  0  0  0  0
  4  1  1  0  0  0  0
  4  5  1  0  0  0  0
  6  4  1  0  0  0  0
  8 11  1  0  0  0  0
  8 10  1  0  0  0  0
  9  8  1  0  0  0  0
 11 13  1  0  0  0  0
 12 11  1  0  0  0  0
 14 11  1  0  0  0  0
M  END
$$$$
Title Card Required
 OpenBabel06272217483D

 14 13  0  0  0  0  0  0  0  0999 V2000
   -1.5045    0.5288   -0.0092 C   0  0  0  0  0  0  0  0  0  0  0  0
   -0.8293    1.1587   -0.7918 H   0  0  0  0  0  0  0  0  0  0  0  0
   -0.9767    0.5091    1.0727 H   0  0  0  0  0  0  0  0  0  0  0  0
   -1.6565   -0.9621   -0.4477 C   0  0  0  0  0  0  0  0  0  0  0  0
   -1.2762   -1.6881    0.3283 H   0  0  0  0  0  0  0  0  0  0  0  0
   -1.3895   -1.2933   -1.4244 H   0  0  0  0  0  0  0  0  0  0  0  0
    2.4099    0.1416    0.0488 Br  0  0  0  0  0 15  0  0  0  0  0  0
   -2.8373    0.9925    0.2253 C   0  0  0  0  0  0  0  0  0  0  0  0
   -3.3622    1.5524   -0.5828 H   0  0  0  0  0  0  0  0  0  0  0  0
   -2.8891    1.5899    1.2307 H   0  0  0  0  0  0  0  0  0  0  0  0
   -3.8267   -0.1544    0.4098 C   0  0  0  0  0  0  0  0  0  0  0  0
   -4.8804    0.4951   -0.0642 H   0  0  0  0  0  0  0  0  0  0  0  0
   -4.1591   -0.5915    1.2982 H   0  0  0  0  0  0  0  0  0  0  0  0
   -3.2739   -1.1114   -0.4415 O   0  0  0  0  0  0  0  0  0  0  0  0
  1  8  1  0  0  0  0
  1  3  1  0  0  0  0
  2  1  1  0  0  0  0
  4 14  1  0  0  0  0
  4  1  1  0  0  0  0
  4  5  1  0  0  0  0
  6  4  1  0  0  0  0
  8 11  1  0  0  0  0
  8 10  1  0  0  0  0
  9  8  1  0  0  0  0
 11 13  1  0  0  0  0
 12 11  1  0  0  0  0
 14 11  1  0  0  0  0
M  END
$$$$
Title Card Required
 OpenBabel06272217483D

 14 13  0  0  0  0  0  0  0  0999 V2000
   -1.5034    0.5275   -0.0071 C   0  0  0  0  0  0  0  0  0  0  0  0
   -0.8345    1.1224   -0.7724 H   0  0  0  0  0  0  0  0  0  0  0  0
   -0.9618    0.4313    1.0351 H   0  0  0  0  0  0  0  0  0  0  0  0
   -1.6880   -0.9542   -0.4399 C   0  0  0  0  0  0  0  0  0  0  0  0
   -1.2951   -1.6373    0.3153 H   0  0  0  0  0  0  0  0  0  0  0  0
   -1.4502   -1.2923   -1.3962 H   0  0  0  0  0  0  0  0  0  0  0  0
    2.4154    0.1423    0.0490 Br  0  0  0  0  0 15  0  0  0  0  0  0
   -2.8419    1.0135    0.2313 C   0  0  0  0  0  0  0  0  0  0  0  0
   -3.4064    1.4943   -0.6088 H   0  0  0  0  0  0  0  0  0  0  0  0
   -2.9109    1.5393    1.2423 H   0  0  0  0  0  0  0  0  0  0  0  0
   -3.8068   -0.1595    0.4000 C   0  0  0  0  0  0  0  0  0  0  0  0
   -4.8539    0.3890   -0.1002 H   0  0  0  0  0  0  0  0  0  0  0  0
   -4.1409   -0.5850    1.3268 H   0  0  0  0  0  0  0  0  0  0  0  0
   -3.2839   -1.1145   -0.4456 O   0  0  0  0  0  0  0  0  0  0  0  0
  1  8  1  0  0  0  0
  1  3  1  0  0  0  0
  2  1  1  0  0  0  0
  4  1  1  0  0  0  0
  4  5  1  0  0  0  0
  6  4  1  0  0  0  0
  8 11  1  0  0  0  0
  8 10  1  0  0  0  0
  9  8  1  0  0  0  0
 11 13  1  0  0  0  0
 12 11  1  0  0  0  0
 14  4  1  0  0  0  0
 14 11  1  0  0  0  0
M  END
$$$$
Title Card Required
 OpenBabel06272217483D

 14 13  0  0  0  0  0  0  0  0999 V2000
   -1.4984    0.5250   -0.0050 C   0  0  0  0  0  0  0  0  0  0  0  0
   -0.8517    1.0774   -0.7357 H   0  0  0  0  0  0  0  0  0  0  0  0
   -0.9525    0.3666    0.9760 H   0  0  0  0  0  0  0  0  0  0  0  0
   -1.7207   -0.9463   -0.4310 C   0  0  0  0  0  0  0  0  0  0  0  0
   -1.3120   -1.5922    0.3036 H   0  0  0  0  0  0  0  0  0  0  0  0
   -1.4972   -1.2942   -1.3912 H   0  0  0  0  0  0  0  0  0  0  0  0
    2.4204    0.1429    0.0492 Br  0  0  0  0  0 15  0  0  0  0  0  0
   -2.8494    1.0346    0.2388 C   0  0  0  0  0  0  0  0  0  0  0  0
   -3.4314    1.4482   -0.6266 H   0  0  0  0  0  0  0  0  0  0  0  0
   -2.9307    1.4981    1.2360 H   0  0  0  0  0  0  0  0  0  0  0  0
   -3.7906   -0.1630    0.3878 C   0  0  0  0  0  0  0  0  0  0  0  0
   -4.8064    0.2680   -0.1182 H   0  0  0  0  0  0  0  0  0  0  0  0
   -4.1215   -0.5798    1.3688 H   0  0  0  0  0  0  0  0  0  0  0  0
   -3.2913   -1.1179   -0.4497 O   0  0  0  0  0  0  0  0  0  0  0  0
  1  8  1  0  0  0  0
  1  3  1  0  0  0  0
  2  1  1  0  0  0  0
  4  1  1  0  0  0  0
  4  5  1  0  0  0  0
  6  4  1  0  0  0  0
  8 11  1  0  0  0  0
  8 10  1  0  0  0  0
  9  8  1  0  0  0  0
 11 13  1  0  0  0  0
 12 11  1  0  0  0  0
 14  4  1  0  0  0  0
 14 11  1  0  0  0  0
M  END
$$$$
Title Card Required
 OpenBabel06272217483D

 14 13  0  0  0  0  0  0  0  0999 V2000
   -1.4918    0.5210   -0.0030 C   0  0  0  0  0  0  0  0  0  0  0  0
   -0.8716    1.0313   -0.6931 H   0  0  0  0  0  0  0  0  0  0  0  0
   -0.9445    0.3140    0.9084 H   0  0  0  0  0  0  0  0  0  0  0  0
   -1.7554   -0.9379   -0.4221 C   0  0  0  0  0  0  0  0  0  0  0  0
   -1.3243   -1.5590    0.3006 H   0  0  0  0  0  0  0  0  0  0  0  0
   -1.5330   -1.2982   -1.4045 H   0  0  0  0  0  0  0  0  0  0  0  0
    2.4252    0.1435    0.0495 Br  0  0  0  0  0 15  0  0  0  0  0  0
   -2.8589    1.0550    0.2470 C   0  0  0  0  0  0  0  0  0  0  0  0
   -3.4404    1.4147   -0.6369 H   0  0  0  0  0  0  0  0  0  0  0  0
   -2.9501    1.4709    1.2233 H   0  0  0  0  0  0  0  0  0  0  0  0
   -3.7776   -0.1658    0.3747 C   0  0  0  0  0  0  0  0  0  0  0  0
   -4.7459    0.1389   -0.1222 H   0  0  0  0  0  0  0  0  0  0  0  0
   -4.0964   -0.5712    1.4110 H   0  0  0  0  0  0  0  0  0  0  0  0
   -3.2965   -1.1215   -0.4537 O   0  0  0  0  0  0  0  0  0  0  0  0
  1  8  1  0  0  0  0
  1  3  1  0  0  0  0
  2  1  1  0  0  0  0
  4  1  1  0  0  0  0
  4  5  1  0  0  0  0
  6  4  1  0  0  0  0
  8 11  1  0  0  0  0
  8 10  1  0  0  0  0
  9  8  1  0  0  0  0
 11 13  1  0  0  0  0
 12 11  1  0  0  0  0
 14  4  1  0  0  0  0
 14 11  1  0  0  0  0
M  END
$$$$
Title Card Required
 OpenBabel06272217483D

 14 13  0  0  0  0  0  0  0  0999 V2000
   -1.4853    0.5150   -0.0007 C   0  0  0  0  0  0  0  0  0  0  0  0
   -0.8831    0.9923   -0.6574 H   0  0  0  0  0  0  0  0  0  0  0  0
   -0.9310    0.2701    0.8440 H   0  0  0  0  0  0  0  0  0  0  0  0
   -1.7940   -0.9289   -0.4142 C   0  0  0  0  0  0  0  0  0  0  0  0
   -1.3312   -1.5404    0.3098 H   0  0  0  0  0  0  0  0  0  0  0  0
   -1.5610   -1.3016   -1.4269 H   0  0  0  0  0  0  0  0  0  0  0  0
    2.4301    0.1440    0.0497 Br  0  0  0  0  0 15  0  0  0  0  0  0
   -2.8703    1.0750    0.2551 C   0  0  0  0  0  0  0  0  0  0  0  0
   -3.4354    1.3949   -0.6412 H   0  0  0  0  0  0  0  0  0  0  0  0
   -2.9718    1.4626    1.2151 H   0  0  0  0  0  0  0  0  0  0  0  0
   -3.7665   -0.1689    0.3618 C   0  0  0  0  0  0  0  0  0  0  0  0
   -4.6834    0.0048   -0.1171 H   0  0  0  0  0  0  0  0  0  0  0  0
   -4.0612   -0.5563    1.4463 H   0  0  0  0  0  0  0  0  0  0  0  0
   -3.2994   -1.1257   -0.4580 O   0  0  0  0  0  0  0  0  0  0  0  0
  1  8  1  0  0  0  0
  1  3  1  0  0  0  0
  2  1  1  0  0  0  0
  4  1  1  0  0  0  0
  4  5  1  0  0  0  0
  6  4  1  0  0  0  0
  8 11  1  0  0  0  0
  8 10  1  0  0  0  0
  9  8  1  0  0  0  0
 11 13  1  0  0  0  0
 12 11  1  0  0  0  0
 14  4  1  0  0  0  0
 14 11  1  0  0  0  0
M  END
$$$$
Title Card Required
 OpenBabel06272217483D

 14 13  0  0  0  0  0  0  0  0999 V2000
   -1.4814    0.5060    0.0020 C   0  0  0  0  0  0  0  0  0  0  0  0
   -0.8716    0.9716   -0.6458 H   0  0  0  0  0  0  0  0  0  0  0  0
   -0.9015    0.2325    0.7992 H   0  0  0  0  0  0  0  0  0  0  0  0
   -1.8381   -0.9199   -0.4082 C   0  0  0  0  0  0  0  0  0  0  0  0
   -1.3349   -1.5372    0.3309 H   0  0  0  0  0  0  0  0  0  0  0  0
   -1.5828   -1.3003   -1.4484 H   0  0  0  0  0  0  0  0  0  0  0  0
    2.4354    0.1447    0.0499 Br  0  0  0  0  0 15  0  0  0  0  0  0
   -2.8836    1.0942    0.2627 C   0  0  0  0  0  0  0  0  0  0  0  0
   -3.4166    1.3942   -0.6413 H   0  0  0  0  0  0  0  0  0  0  0  0
   -2.9986    1.4810    1.2220 H   0  0  0  0  0  0  0  0  0  0  0  0
   -3.7558   -0.1731    0.3503 C   0  0  0  0  0  0  0  0  0  0  0  0
   -4.6440   -0.1283   -0.1117 H   0  0  0  0  0  0  0  0  0  0  0  0
   -4.0110   -0.5326    1.4684 H   0  0  0  0  0  0  0  0  0  0  0  0
   -3.2994   -1.1310   -0.4627 O   0  0  0  0  0  0  0  0  0  0  0  0
  1  8  1  0  0  0  0
  1  3  1  0  0  0  0
  2  1  1  0  0  0  0
  4  1  1  0  0  0  0
  4  5  1  0  0  0  0
  6  4  1  0  0  0  0
  8 11  1  0  0  0  0
  8 10  1  0  0  0  0
  9  8  1  0  0  0  0
 11 13  1  0  0  0  0
 12 11  1  0  0  0  0
 14  4  1  0  0  0  0
 14 11  1  0  0  0  0
M  END
$$$$
Title Card Required
 OpenBabel06272217483D

 14 13  0  0  0  0  0  0  0  0999 V2000
   -1.4820    0.4946    0.0047 C   0  0  0  0  0  0  0  0  0  0  0  0
   -0.8325    0.9757   -0.6679 H   0  0  0  0  0  0  0  0  0  0  0  0
   -0.8512    0.2034    0.7899 H   0  0  0  0  0  0  0  0  0  0  0  0
   -1.8842   -0.9129   -0.4055 C   0  0  0  0  0  0  0  0  0  0  0  0
   -1.3421   -1.5457    0.3542 H   0  0  0  0  0  0  0  0  0  0  0  0
   -1.5977   -1.2904   -1.4566 H   0  0  0  0  0  0  0  0  0  0  0  0
    2.4408    0.1453    0.0502 Br  0  0  0  0  0 15  0  0  0  0  0  0
   -2.8975    1.1107    0.2690 C   0  0  0  0  0  0  0  0  0  0  0  0
   -3.3869    1.4187   -0.6414 H   0  0  0  0  0  0  0  0  0  0  0  0
   -3.0301    1.5286    1.2455 H   0  0  0  0  0  0  0  0  0  0  0  0
   -3.7450   -0.1782    0.3432 C   0  0  0  0  0  0  0  0  0  0  0  0
   -4.6610   -0.2418   -0.1152 H   0  0  0  0  0  0  0  0  0  0  0  0
   -3.9471   -0.5021    1.4701 H   0  0  0  0  0  0  0  0  0  0  0  0
   -3.2957   -1.1373   -0.4677 O   0  0  0  0  0  0  0  0  0  0  0  0
  1  8  1  0  0  0  0
  1  3  1  0  0  0  0
  2  1  1  0  0  0  0
  4  1  1  0  0  0  0
  4  5  1  0  0  0  0
  6  4  1  0  0  0  0
  8 11  1  0  0  0  0
  8 10  1  0  0  0  0
  9  8  1  0  0  0  0
 11 13  1  0  0  0  0
 12 11  1  0  0  0  0
 14  4  1  0  0  0  0
 14 11  1  0  0  0  0
M  END
$$$$
Title Card Required
 OpenBabel06272217483D

 14 13  0  0  0  0  0  0  0  0999 V2000
   -1.4857    0.4827    0.0069 C   0  0  0  0  0  0  0  0  0  0  0  0
   -0.7847    0.9920   -0.7067 H   0  0  0  0  0  0  0  0  0  0  0  0
   -0.7914    0.1874    0.8074 H   0  0  0  0  0  0  0  0  0  0  0  0
   -1.9270   -0.9098   -0.4060 C   0  0  0  0  0  0  0  0  0  0  0  0
   -1.3601   -1.5581    0.3684 H   0  0  0  0  0  0  0  0  0  0  0  0
   -1.6057   -1.2717   -1.4468 H   0  0  0  0  0  0  0  0  0  0  0  0
    2.4460    0.1460    0.0504 Br  0  0  0  0  0 15  0  0  0  0  0  0
   -2.9109    1.1233    0.2748 C   0  0  0  0  0  0  0  0  0  0  0  0
   -3.3518    1.4678   -0.6454 H   0  0  0  0  0  0  0  0  0  0  0  0
   -3.0625    1.5945    1.2712 H   0  0  0  0  0  0  0  0  0  0  0  0
   -3.7362   -0.1832    0.3406 C   0  0  0  0  0  0  0  0  0  0  0  0
   -4.7264   -0.3255   -0.1201 H   0  0  0  0  0  0  0  0  0  0  0  0
   -3.8751   -0.4702    1.4526 H   0  0  0  0  0  0  0  0  0  0  0  0
   -3.2888   -1.1440   -0.4728 O   0  0  0  0  0  0  0  0  0  0  0  0
  1  8  1  0  0  0  0
  1  3  1  0  0  0  0
  2  1  1  0  0  0  0
  4  1  1  0  0  0  0
  4  5  1  0  0  0  0
  6  4  1  0  0  0  0
  8 11  1  0  0  0  0
  8 10  1  0  0  0  0
  9  8  1  0  0  0  0
 11 13  1  0  0  0  0
 12 11  1  0  0  0  0
 14  4  1  0  0  0  0
 14 11  1  0  0  0  0
M  END
$$$$
Title Card Required
 OpenBabel06272217483D

 14 13  0  0  0  0  0  0  0  0999 V2000
   -1.4899    0.4712    0.0086 C   0  0  0  0  0  0  0  0  0  0  0  0
   -0.7466    1.0061   -0.7436 H   0  0  0  0  0  0  0  0  0  0  0  0
   -0.7351    0.1882    0.8337 H   0  0  0  0  0  0  0  0  0  0  0  0
   -1.9661   -0.9107   -0.4091 C   0  0  0  0  0  0  0  0  0  0  0  0
   -1.3938   -1.5701    0.3684 H   0  0  0  0  0  0  0  0  0  0  0  0
   -1.6073   -1.2454   -1.4210 H   0  0  0  0  0  0  0  0  0  0  0  0
    2.4512    0.1466    0.0507 Br  0  0  0  0  0 15  0  0  0  0  0  0
   -2.9240    1.1334    0.2812 C   0  0  0  0  0  0  0  0  0  0  0  0
   -3.3118    1.5400   -0.6535 H   0  0  0  0  0  0  0  0  0  0  0  0
   -3.0939    1.6696    1.2841 H   0  0  0  0  0  0  0  0  0  0  0  0
   -3.7318   -0.1881    0.3411 C   0  0  0  0  0  0  0  0  0  0  0  0
   -4.8111   -0.3805   -0.1117 H   0  0  0  0  0  0  0  0  0  0  0  0
   -3.7954   -0.4407    1.4223 H   0  0  0  0  0  0  0  0  0  0  0  0
   -3.2794   -1.1513   -0.4779 O   0  0  0  0  0  0  0  0  0  0  0  0
  1  8  1  0  0  0  0
  1  3  1  0  0  0  0
  2  1  1  0  0  0  0
  4  1  1  0  0  0  0
  4  5  1  0  0  0  0
  6  4  1  0  0  0  0
  8 11  1  0  0  0  0
  8 10  1  0  0  0  0
  9  8  1  0  0  0  0
 11 13  1  0  0  0  0
 12 11  1  0  0  0  0
 14  4  1  0  0  0  0
 14 11  1  0  0  0  0
M  END
$$$$
Title Card Required
 OpenBabel06272217483D

 14 13  0  0  0  0  0  0  0  0999 V2000
   -1.4931    0.4603    0.0101 C   0  0  0  0  0  0  0  0  0  0  0  0
   -0.7314    1.0087   -0.7666 H   0  0  0  0  0  0  0  0  0  0  0  0
   -0.6941    0.2094    0.8545 H   0  0  0  0  0  0  0  0  0  0  0  0
   -2.0002   -0.9160   -0.4145 C   0  0  0  0  0  0  0  0  0  0  0  0
   -1.4467   -1.5805    0.3520 H   0  0  0  0  0  0  0  0  0  0  0  0
   -1.6005   -1.2131   -1.3847 H   0  0  0  0  0  0  0  0  0  0  0  0
    2.4567    0.1473    0.0509 Br  0  0  0  0  0 15  0  0  0  0  0  0
   -2.9376    1.1421    0.2885 C   0  0  0  0  0  0  0  0  0  0  0  0
   -3.2642    1.6338   -0.6605 H   0  0  0  0  0  0  0  0  0  0  0  0
   -3.1224    1.7467    1.2730 H   0  0  0  0  0  0  0  0  0  0  0  0
   -3.7341   -0.1927    0.3431 C   0  0  0  0  0  0  0  0  0  0  0  0
   -4.8921   -0.4055   -0.0780 H   0  0  0  0  0  0  0  0  0  0  0  0
   -3.7078   -0.4187    1.3900 H   0  0  0  0  0  0  0  0  0  0  0  0
   -3.2689   -1.1591   -0.4834 O   0  0  0  0  0  0  0  0  0  0  0  0
  1  8  1  0  0  0  0
  1  3  1  0  0  0  0
  2  1  1  0  0  0  0
  4  1  1  0  0  0  0
  4  5  1  0  0  0  0
  6  4  1  0  0  0  0
  8 11  1  0  0  0  0
  8 10  1  0  0  0  0
  9  8  1  0  0  0  0
 11 13  1  0  0  0  0
 12 11  1  0  0  0  0
 14  4  1  0  0  0  0
 14 11  1  0  0  0  0
M  END
$$$$
Title Card Required
 OpenBabel06272217483D

 14 13  0  0  0  0  0  0  0  0999 V2000
   -1.4945    0.4507    0.0120 C   0  0  0  0  0  0  0  0  0  0  0  0
   -0.7493    0.9938   -0.7673 H   0  0  0  0  0  0  0  0  0  0  0  0
   -0.6801    0.2517    0.8593 H   0  0  0  0  0  0  0  0  0  0  0  0
   -2.0251   -0.9253   -0.4212 C   0  0  0  0  0  0  0  0  0  0  0  0
   -1.5161   -1.5903    0.3214 H   0  0  0  0  0  0  0  0  0  0  0  0
   -1.5809   -1.1800   -1.3513 H   0  0  0  0  0  0  0  0  0  0  0  0
    2.4624    0.1480    0.0512 Br  0  0  0  0  0 15  0  0  0  0  0  0
   -2.9516    1.1504    0.2958 C   0  0  0  0  0  0  0  0  0  0  0  0
   -3.2078    1.7397   -0.6560 H   0  0  0  0  0  0  0  0  0  0  0  0
   -3.1451    1.8155    1.2313 H   0  0  0  0  0  0  0  0  0  0  0  0
   -3.7450   -0.1965    0.3450 C   0  0  0  0  0  0  0  0  0  0  0  0
   -4.9481   -0.3968   -0.0123 H   0  0  0  0  0  0  0  0  0  0  0  0
   -3.6152   -0.4122    1.3738 H   0  0  0  0  0  0  0  0  0  0  0  0
   -3.2599   -1.1670   -0.4894 O   0  0  0  0  0  0  0  0  0  0  0  0
  1  8  1  0  0  0  0
  1  3  1  0  0  0  0
  2  1  1  0  0  0  0
  4  1  1  0  0  0  0
  4  5  1  0  0  0  0
  6  4  1  0  0  0  0
  8 11  1  0  0  0  0
  8 10  1  0  0  0  0
  9  8  1  0  0  0  0
 11 13  1  0  0  0  0
 12 11  1  0  0  0  0
 14  4  1  0  0  0  0
 14 11  1  0  0  0  0
M  END
$$$$
Title Card Required
 OpenBabel06272217483D

 14 13  0  0  0  0  0  0  0  0999 V2000
   -1.4943    0.4436    0.0144 C   0  0  0  0  0  0  0  0  0  0  0  0
   -0.7994    0.9631   -0.7467 H   0  0  0  0  0  0  0  0  0  0  0  0
   -0.6972    0.3070    0.8458 H   0  0  0  0  0  0  0  0  0  0  0  0
   -2.0365   -0.9366   -0.4278 C   0  0  0  0  0  0  0  0  0  0  0  0
   -1.5867   -1.6047    0.2889 H   0  0  0  0  0  0  0  0  0  0  0  0
   -1.5462   -1.1544   -1.3383 H   0  0  0  0  0  0  0  0  0  0  0  0
    2.4681    0.1488    0.0515 Br  0  0  0  0  0 15  0  0  0  0  0  0
   -2.9648    1.1588    0.3011 C   0  0  0  0  0  0  0  0  0  0  0  0
   -3.1477    1.8364   -0.6322 H   0  0  0  0  0  0  0  0  0  0  0  0
   -3.1591    1.8644    1.1674 H   0  0  0  0  0  0  0  0  0  0  0  0
   -3.7638   -0.1992    0.3460 C   0  0  0  0  0  0  0  0  0  0  0  0
   -4.9635   -0.3582    0.0797 H   0  0  0  0  0  0  0  0  0  0  0  0
   -3.5269   -0.4244    1.3829 H   0  0  0  0  0  0  0  0  0  0  0  0
   -3.2563   -1.1740   -0.4954 O   0  0  0  0  0  0  0  0  0  0  0  0
  1  8  1  0  0  0  0
  1  3  1  0  0  0  0
  2  1  1  0  0  0  0
  4  1  1  0  0  0  0
  4  5  1  0  0  0  0
  6  4  1  0  0  0  0
  8 11  1  0  0  0  0
  8 10  1  0  0  0  0
  9  8  1  0  0  0  0
 11 13  1  0  0  0  0
 12 11  1  0  0  0  0
 14  4  1  0  0  0  0
 14 11  1  0  0  0  0
M  END
$$$$
Title Card Required
 OpenBabel06272217483D

 14 13  0  0  0  0  0  0  0  0999 V2000
   -1.4942    0.4388    0.0175 C   0  0  0  0  0  0  0  0  0  0  0  0
   -0.8668    0.9271   -0.7183 H   0  0  0  0  0  0  0  0  0  0  0  0
   -0.7358    0.3640    0.8235 H   0  0  0  0  0  0  0  0  0  0  0  0
   -2.0345   -0.9476   -0.4338 C   0  0  0  0  0  0  0  0  0  0  0  0
   -1.6424   -1.6306    0.2686 H   0  0  0  0  0  0  0  0  0  0  0  0
   -1.5018   -1.1389   -1.3480 H   0  0  0  0  0  0  0  0  0  0  0  0
    2.4733    0.1494    0.0517 Br  0  0  0  0  0 15  0  0  0  0  0  0
   -2.9760    1.1670    0.3031 C   0  0  0  0  0  0  0  0  0  0  0  0
   -3.0913    1.9097   -0.5921 H   0  0  0  0  0  0  0  0  0  0  0  0
   -3.1656    1.8937    1.1008 H   0  0  0  0  0  0  0  0  0  0  0  0
   -3.7873   -0.2009    0.3473 C   0  0  0  0  0  0  0  0  0  0  0  0
   -4.9414   -0.3014    0.1845 H   0  0  0  0  0  0  0  0  0  0  0  0
   -3.4514   -0.4490    1.4031 H   0  0  0  0  0  0  0  0  0  0  0  0
   -3.2597   -1.1796   -0.5016 O   0  0  0  0  0  0  0  0  0  0  0  0
  1  8  1  0  0  0  0
  1  3  1  0  0  0  0
  2  1  1  0  0  0  0
  4  1  1  0  0  0  0
  4  5  1  0  0  0  0
  6  4  1  0  0  0  0
  8 11  1  0  0  0  0
  8 10  1  0  0  0  0
  9  8  1  0  0  0  0
 11 13  1  0  0  0  0
 12 11  1  0  0  0  0
 14  4  1  0  0  0  0
 14 11  1  0  0  0  0
M  END
$$$$
Title Card Required
 OpenBabel06272217483D

 14 13  0  0  0  0  0  0  0  0999 V2000
   -1.4968    0.4351    0.0218 C   0  0  0  0  0  0  0  0  0  0  0  0
   -0.9361    0.8979   -0.7007 H   0  0  0  0  0  0  0  0  0  0  0  0
   -0.7826    0.4180    0.8059 H   0  0  0  0  0  0  0  0  0  0  0  0
   -2.0213   -0.9580   -0.4399 C   0  0  0  0  0  0  0  0  0  0  0  0
   -1.6777   -1.6724    0.2659 H   0  0  0  0  0  0  0  0  0  0  0  0
   -1.4545   -1.1316   -1.3711 H   0  0  0  0  0  0  0  0  0  0  0  0
    2.4784    0.1501    0.0520 Br  0  0  0  0  0 15  0  0  0  0  0  0
   -2.9854    1.1748    0.3011 C   0  0  0  0  0  0  0  0  0  0  0  0
   -3.0410    1.9593   -0.5424 H   0  0  0  0  0  0  0  0  0  0  0  0
   -3.1680    1.9123    1.0469 H   0  0  0  0  0  0  0  0  0  0  0  0
   -3.8127   -0.2017    0.3502 C   0  0  0  0  0  0  0  0  0  0  0  0
   -4.8971   -0.2346    0.2959 H   0  0  0  0  0  0  0  0  0  0  0  0
   -3.3913   -0.4789    1.4178 H   0  0  0  0  0  0  0  0  0  0  0  0
   -3.2697   -1.1836   -0.5082 O   0  0  0  0  0  0  0  0  0  0  0  0
  1  8  1  0  0  0  0
  1  3  1  0  0  0  0
  2  1  1  0  0  0  0
  4  1  1  0  0  0  0
  4  5  1  0  0  0  0
  6  4  1  0  0  0  0
  8 11  1  0  0  0  0
  8 10  1  0  0  0  0
  9  8  1  0  0  0  0
 11 13  1  0  0  0  0
 12 11  1  0  0  0  0
 14  4  1  0  0  0  0
 14 11  1  0  0  0  0
M  END
$$$$
Title Card Required
 OpenBabel06272217483D

 14 13  0  0  0  0  0  0  0  0999 V2000
   -1.5048    0.4315    0.0279 C   0  0  0  0  0  0  0  0  0  0  0  0
   -0.9932    0.8882   -0.7151 H   0  0  0  0  0  0  0  0  0  0  0  0
   -0.8245    0.4678    0.8086 H   0  0  0  0  0  0  0  0  0  0  0  0
   -1.9978   -0.9686   -0.4467 C   0  0  0  0  0  0  0  0  0  0  0  0
   -1.6926   -1.7292    0.2783 H   0  0  0  0  0  0  0  0  0  0  0  0
   -1.4106   -1.1308   -1.3977 H   0  0  0  0  0  0  0  0  0  0  0  0
    2.4836    0.1508    0.0523 Br  0  0  0  0  0 15  0  0  0  0  0  0
   -2.9928    1.1816    0.2948 C   0  0  0  0  0  0  0  0  0  0  0  0
   -2.9986    1.9871   -0.4911 H   0  0  0  0  0  0  0  0  0  0  0  0
   -3.1685    1.9285    1.0193 H   0  0  0  0  0  0  0  0  0  0  0  0
   -3.8373   -0.2018    0.3560 C   0  0  0  0  0  0  0  0  0  0  0  0
   -4.8571   -0.1619    0.4115 H   0  0  0  0  0  0  0  0  0  0  0  0
   -3.3500   -0.5096    1.4166 H   0  0  0  0  0  0  0  0  0  0  0  0
   -3.2864   -1.1858   -0.5158 O   0  0  0  0  0  0  0  0  0  0  0  0
  1  8  1  0  0  0  0
  1  3  1  0  0  0  0
  2  1  1  0  0  0  0
  4  1  1  0  0  0  0
  4  5  1  0  0  0  0
  6  4  1  0  0  0  0
  8 11  1  0  0  0  0
  8 10  1  0  0  0  0
  9  8  1  0  0  0  0
 11 12  1  0  0  0  0
 11 13  1  0  0  0  0
 14  4  1  0  0  0  0
 14 11  1  0  0  0  0
M  END
$$$$
Title Card Required
 OpenBabel06272217483D

 14 13  0  0  0  0  0  0  0  0999 V2000
   -1.5195    0.4278    0.0354 C   0  0  0  0  0  0  0  0  0  0  0  0
   -1.0304    0.9032   -0.7676 H   0  0  0  0  0  0  0  0  0  0  0  0
   -0.8495    0.5108    0.8414 H   0  0  0  0  0  0  0  0  0  0  0  0
   -1.9665   -0.9799   -0.4533 C   0  0  0  0  0  0  0  0  0  0  0  0
   -1.6893   -1.7887    0.2951 H   0  0  0  0  0  0  0  0  0  0  0  0
   -1.3786   -1.1360   -1.4175 H   0  0  0  0  0  0  0  0  0  0  0  0
    2.4888    0.1515    0.0525 Br  0  0  0  0  0 15  0  0  0  0  0  0
   -2.9977    1.1860    0.2848 C   0  0  0  0  0  0  0  0  0  0  0  0
   -2.9693    1.9956   -0.4525 H   0  0  0  0  0  0  0  0  0  0  0  0
   -3.1677    1.9436    1.0279 H   0  0  0  0  0  0  0  0  0  0  0  0
   -3.8559   -0.2012    0.3650 C   0  0  0  0  0  0  0  0  0  0  0  0
   -4.8574   -0.0905    0.5238 H   0  0  0  0  0  0  0  0  0  0  0  0
   -3.3332   -0.5354    1.3951 H   0  0  0  0  0  0  0  0  0  0  0  0
   -3.3081   -1.1856   -0.5241 O   0  0  0  0  0  0  0  0  0  0  0  0
  1  8  1  0  0  0  0
  1  3  1  0  0  0  0
  2  1  1  0  0  0  0
  4  1  1  0  0  0  0
  4  5  1  0  0  0  0
  6  4  1  0  0  0  0
  8 11  1  0  0  0  0
  8 10  1  0  0  0  0
  9  8  1  0  0  0  0
 11 12  1  0  0  0  0
 11 13  1  0  0  0  0
 14  4  1  0  0  0  0
 14 11  1  0  0  0  0
M  END
$$$$
Title Card Required
 OpenBabel06272217483D

 14 13  0  0  0  0  0  0  0  0999 V2000
   -1.5381    0.4250    0.0425 C   0  0  0  0  0  0  0  0  0  0  0  0
   -1.0560    0.9298   -0.8337 H   0  0  0  0  0  0  0  0  0  0  0  0
   -0.8604    0.5452    0.8926 H   0  0  0  0  0  0  0  0  0  0  0  0
   -1.9321   -0.9923   -0.4587 C   0  0  0  0  0  0  0  0  0  0  0  0
   -1.6739   -1.8360    0.3038 H   0  0  0  0  0  0  0  0  0  0  0  0
   -1.3625   -1.1461   -1.4256 H   0  0  0  0  0  0  0  0  0  0  0  0
    2.4938    0.1522    0.0528 Br  0  0  0  0  0 15  0  0  0  0  0  0
   -3.0001    1.1877    0.2733 C   0  0  0  0  0  0  0  0  0  0  0  0
   -2.9558    1.9926   -0.4385 H   0  0  0  0  0  0  0  0  0  0  0  0
   -3.1642    1.9502    1.0655 H   0  0  0  0  0  0  0  0  0  0  0  0
   -3.8669   -0.1998    0.3761 C   0  0  0  0  0  0  0  0  0  0  0  0
   -4.8995   -0.0265    0.6252 H   0  0  0  0  0  0  0  0  0  0  0  0
   -3.3403   -0.5527    1.3579 H   0  0  0  0  0  0  0  0  0  0  0  0
   -3.3320   -1.1833   -0.5328 O   0  0  0  0  0  0  0  0  0  0  0  0
  1  8  1  0  0  0  0
  1  3  1  0  0  0  0
  2  1  1  0  0  0  0
  4  1  1  0  0  0  0
  4  5  1  0  0  0  0
  6  4  1  0  0  0  0
  8 11  1  0  0  0  0
  8 10  1  0  0  0  0
  9  8  1  0  0  0  0
 11 12  1  0  0  0  0
 11 13  1  0  0  0  0
 14  4  1  0  0  0  0
 14 11  1  0  0  0  0
M  END
$$$$
Title Card Required
 OpenBabel06272217483D

 14 13  0  0  0  0  0  0  0  0999 V2000
   -1.5587    0.4244    0.0489 C   0  0  0  0  0  0  0  0  0  0  0  0
   -1.0818    0.9546   -0.8891 H   0  0  0  0  0  0  0  0  0  0  0  0
   -0.8692    0.5717    0.9442 H   0  0  0  0  0  0  0  0  0  0  0  0
   -1.8961   -1.0064   -0.4622 C   0  0  0  0  0  0  0  0  0  0  0  0
   -1.6503   -1.8657    0.2984 H   0  0  0  0  0  0  0  0  0  0  0  0
   -1.3597   -1.1606   -1.4239 H   0  0  0  0  0  0  0  0  0  0  0  0
    2.4987    0.1528    0.0530 Br  0  0  0  0  0 15  0  0  0  0  0  0
   -3.0007    1.1870    0.2617 C   0  0  0  0  0  0  0  0  0  0  0  0
   -2.9579    1.9853   -0.4522 H   0  0  0  0  0  0  0  0  0  0  0  0
   -3.1556    1.9394    1.1186 H   0  0  0  0  0  0  0  0  0  0  0  0
   -3.8730   -0.1974    0.3892 C   0  0  0  0  0  0  0  0  0  0  0  0
   -4.9562    0.0276    0.7133 H   0  0  0  0  0  0  0  0  0  0  0  0
   -3.3659   -0.5624    1.3126 H   0  0  0  0  0  0  0  0  0  0  0  0
   -3.3573   -1.1788   -0.5419 O   0  0  0  0  0  0  0  0  0  0  0  0
  1  8  1  0  0  0  0
  1  3  1  0  0  0  0
  2  1  1  0  0  0  0
  4  1  1  0  0  0  0
  4  5  1  0  0  0  0
  6  4  1  0  0  0  0
  8 11  1  0  0  0  0
  8 10  1  0  0  0  0
  9  8  1  0  0  0  0
 11 12  1  0  0  0  0
 11 13  1  0  0  0  0
 14  4  1  0  0  0  0
 14 11  1  0  0  0  0
M  END
$$$$
Title Card Required
 OpenBabel06272217483D

 14 13  0  0  0  0  0  0  0  0999 V2000
   -1.5804    0.4265    0.0542 C   0  0  0  0  0  0  0  0  0  0  0  0
   -1.1141    0.9694   -0.9181 H   0  0  0  0  0  0  0  0  0  0  0  0
   -0.8857    0.5895    0.9814 H   0  0  0  0  0  0  0  0  0  0  0  0
   -1.8593   -1.0228   -0.4633 C   0  0  0  0  0  0  0  0  0  0  0  0
   -1.6198   -1.8755    0.2761 H   0  0  0  0  0  0  0  0  0  0  0  0
   -1.3666   -1.1802   -1.4177 H   0  0  0  0  0  0  0  0  0  0  0  0
    2.5037    0.1535    0.0533 Br  0  0  0  0  0 15  0  0  0  0  0  0
   -2.9997    1.1840    0.2511 C   0  0  0  0  0  0  0  0  0  0  0  0
   -2.9774    1.9751   -0.4933 H   0  0  0  0  0  0  0  0  0  0  0  0
   -3.1394    1.9028    1.1752 H   0  0  0  0  0  0  0  0  0  0  0  0
   -3.8771   -0.1929    0.4042 C   0  0  0  0  0  0  0  0  0  0  0  0
   -5.0027    0.0680    0.7821 H   0  0  0  0  0  0  0  0  0  0  0  0
   -3.4032   -0.5676    1.2723 H   0  0  0  0  0  0  0  0  0  0  0  0
   -3.3842   -1.1722   -0.5520 O   0  0  0  0  0  0  0  0  0  0  0  0
  1  8  1  0  0  0  0
  1  3  1  0  0  0  0
  2  1  1  0  0  0  0
  4  1  1  0  0  0  0
  4  5  1  0  0  0  0
  6  4  1  0  0  0  0
  8 11  1  0  0  0  0
  8 10  1  0  0  0  0
  9  8  1  0  0  0  0
 11 12  1  0  0  0  0
 11 13  1  0  0  0  0
 14  4  1  0  0  0  0
 14 11  1  0  0  0  0
M  END
$$$$
Title Card Required
 OpenBabel06272217483D

 14 13  0  0  0  0  0  0  0  0999 V2000
   -1.6020    0.4320    0.0584 C   0  0  0  0  0  0  0  0  0  0  0  0
   -1.1533    0.9692   -0.9096 H   0  0  0  0  0  0  0  0  0  0  0  0
   -0.9158    0.5969    0.9923 H   0  0  0  0  0  0  0  0  0  0  0  0
   -1.8238   -1.0406   -0.4611 C   0  0  0  0  0  0  0  0  0  0  0  0
   -1.5830   -1.8666    0.2393 H   0  0  0  0  0  0  0  0  0  0  0  0
   -1.3779   -1.2049   -1.4167 H   0  0  0  0  0  0  0  0  0  0  0  0
    2.5090    0.1542    0.0535 Br  0  0  0  0  0 15  0  0  0  0  0  0
   -2.9976    1.1791    0.2423 C   0  0  0  0  0  0  0  0  0  0  0  0
   -3.0164    1.9576   -0.5537 H   0  0  0  0  0  0  0  0  0  0  0  0
   -3.1141    1.8361    1.2213 H   0  0  0  0  0  0  0  0  0  0  0  0
   -3.8812   -0.1853    0.4194 C   0  0  0  0  0  0  0  0  0  0  0  0
   -5.0216    0.0890    0.8223 H   0  0  0  0  0  0  0  0  0  0  0  0
   -3.4397   -0.5753    1.2605 H   0  0  0  0  0  0  0  0  0  0  0  0
   -3.4120   -1.1635   -0.5627 O   0  0  0  0  0  0  0  0  0  0  0  0
  1  8  1  0  0  0  0
  1  3  1  0  0  0  0
  2  1  1  0  0  0  0
  4  1  1  0  0  0  0
  4  5  1  0  0  0  0
  6  4  1  0  0  0  0
  8 11  1  0  0  0  0
  8 10  1  0  0  0  0
  9  8  1  0  0  0  0
 11 12  1  0  0  0  0
 11 13  1  0  0  0  0
 14  4  1  0  0  0  0
 14 11  1  0  0  0  0
M  END
$$$$
Title Card Required
 OpenBabel06272217483D

 14 13  0  0  0  0  0  0  0  0999 V2000
   -1.6214    0.4397    0.0608 C   0  0  0  0  0  0  0  0  0  0  0  0
   -1.1935    0.9548   -0.8653 H   0  0  0  0  0  0  0  0  0  0  0  0
   -0.9571    0.5939    0.9746 H   0  0  0  0  0  0  0  0  0  0  0  0
   -1.7936   -1.0570   -0.4560 C   0  0  0  0  0  0  0  0  0  0  0  0
   -1.5419   -1.8507    0.2015 H   0  0  0  0  0  0  0  0  0  0  0  0
   -1.3882   -1.2322   -1.4291 H   0  0  0  0  0  0  0  0  0  0  0  0
    2.5141    0.1549    0.0538 Br  0  0  0  0  0 15  0  0  0  0  0  0
   -2.9949    1.1726    0.2358 C   0  0  0  0  0  0  0  0  0  0  0  0
   -3.0714    1.9274   -0.6149 H   0  0  0  0  0  0  0  0  0  0  0  0
   -3.0820    1.7484    1.2451 H   0  0  0  0  0  0  0  0  0  0  0  0
   -3.8860   -0.1747    0.4325 C   0  0  0  0  0  0  0  0  0  0  0  0
   -5.0074    0.0886    0.8278 H   0  0  0  0  0  0  0  0  0  0  0  0
   -3.4633   -0.5912    1.2928 H   0  0  0  0  0  0  0  0  0  0  0  0
   -3.4385   -1.1534   -0.5730 O   0  0  0  0  0  0  0  0  0  0  0  0
  1  8  1  0  0  0  0
  1  3  1  0  0  0  0
  2  1  1  0  0  0  0
  4  1  1  0  0  0  0
  4  5  1  0  0  0  0
  6  4  1  0  0  0  0
  8 11  1  0  0  0  0
  8 10  1  0  0  0  0
  9  8  1  0  0  0  0
 11 12  1  0  0  0  0
 11 13  1  0  0  0  0
 14  4  1  0  0  0  0
 14 11  1  0  0  0  0
M  END
$$$$
Title Card Required
 OpenBabel06272217483D

 14 13  0  0  0  0  0  0  0  0999 V2000
   -1.6386    0.4481    0.0615 C   0  0  0  0  0  0  0  0  0  0  0  0
   -1.2261    0.9346   -0.8022 H   0  0  0  0  0  0  0  0  0  0  0  0
   -1.0016    0.5838    0.9396 H   0  0  0  0  0  0  0  0  0  0  0  0
   -1.7702   -1.0697   -0.4499 C   0  0  0  0  0  0  0  0  0  0  0  0
   -1.4963   -1.8450    0.1789 H   0  0  0  0  0  0  0  0  0  0  0  0
   -1.3966   -1.2586   -1.4529 H   0  0  0  0  0  0  0  0  0  0  0  0
    2.5190    0.1556    0.0540 Br  0  0  0  0  0 15  0  0  0  0  0  0
   -2.9926    1.1646    0.2312 C   0  0  0  0  0  0  0  0  0  0  0  0
   -3.1362    1.8827   -0.6624 H   0  0  0  0  0  0  0  0  0  0  0  0
   -3.0468    1.6544    1.2467 H   0  0  0  0  0  0  0  0  0  0  0  0
   -3.8906   -0.1624    0.4434 C   0  0  0  0  0  0  0  0  0  0  0  0
   -4.9685    0.0715    0.8026 H   0  0  0  0  0  0  0  0  0  0  0  0
   -3.4765   -0.6109    1.3547 H   0  0  0  0  0  0  0  0  0  0  0  0
   -3.4626   -1.1424   -0.5824 O   0  0  0  0  0  0  0  0  0  0  0  0
  1  8  1  0  0  0  0
  1  3  1  0  0  0  0
  2  1  1  0  0  0  0
  4  1  1  0  0  0  0
  4  5  1  0  0  0  0
  6  4  1  0  0  0  0
  8 11  1  0  0  0  0
  8 10  1  0  0  0  0
  9  8  1  0  0  0  0
 11 12  1  0  0  0  0
 11 13  1  0  0  0  0
 14  4  1  0  0  0  0
 14 11  1  0  0  0  0
M  END
$$$$
Title Card Required
 OpenBabel06272217483D

 14 13  0  0  0  0  0  0  0  0999 V2000
   -1.6556    0.4556    0.0610 C   0  0  0  0  0  0  0  0  0  0  0  0
   -1.2418    0.9204   -0.7417 H   0  0  0  0  0  0  0  0  0  0  0  0
   -1.0410    0.5700    0.9023 H   0  0  0  0  0  0  0  0  0  0  0  0
   -1.7523   -1.0785   -0.4444 C   0  0  0  0  0  0  0  0  0  0  0  0
   -1.4429   -1.8593    0.1796 H   0  0  0  0  0  0  0  0  0  0  0  0
   -1.4059   -1.2824   -1.4803 H   0  0  0  0  0  0  0  0  0  0  0  0
    2.5238    0.1563    0.0543 Br  0  0  0  0  0 15  0  0  0  0  0  0
   -2.9912    1.1545    0.2274 C   0  0  0  0  0  0  0  0  0  0  0  0
   -3.2088    1.8222   -0.6910 H   0  0  0  0  0  0  0  0  0  0  0  0
   -3.0095    1.5630    1.2339 H   0  0  0  0  0  0  0  0  0  0  0  0
   -3.8937   -0.1496    0.4538 C   0  0  0  0  0  0  0  0  0  0  0  0
   -4.9184    0.0427    0.7518 H   0  0  0  0  0  0  0  0  0  0  0  0
   -3.4882   -0.6266    1.4253 H   0  0  0  0  0  0  0  0  0  0  0  0
   -3.4854   -1.1301   -0.5908 O   0  0  0  0  0  0  0  0  0  0  0  0
  1  8  1  0  0  0  0
  1  3  1  0  0  0  0
  2  1  1  0  0  0  0
  4  1  1  0  0  0  0
  4  5  1  0  0  0  0
  6  4  1  0  0  0  0
  8 11  1  0  0  0  0
  8 10  1  0  0  0  0
  9  8  1  0  0  0  0
 11 12  1  0  0  0  0
 11 13  1  0  0  0  0
 14  4  1  0  0  0  0
 14 11  1  0  0  0  0
M  END
$$$$
Title Card Required
 OpenBabel06272217483D

 14 13  0  0  0  0  0  0  0  0999 V2000
   -1.6748    0.4603    0.0596 C   0  0  0  0  0  0  0  0  0  0  0  0
   -1.2255    0.9279   -0.7098 H   0  0  0  0  0  0  0  0  0  0  0  0
   -1.0641    0.5544    0.8819 H   0  0  0  0  0  0  0  0  0  0  0  0
   -1.7395   -1.0837   -0.4400 C   0  0  0  0  0  0  0  0  0  0  0  0
   -1.3807   -1.8918    0.2030 H   0  0  0  0  0  0  0  0  0  0  0  0
   -1.4193   -1.3016   -1.5021 H   0  0  0  0  0  0  0  0  0  0  0  0
    2.5290    0.1570    0.0545 Br  0  0  0  0  0 15  0  0  0  0  0  0
   -2.9915    1.1401    0.2232 C   0  0  0  0  0  0  0  0  0  0  0  0
   -3.2902    1.7439   -0.6963 H   0  0  0  0  0  0  0  0  0  0  0  0
   -2.9706    1.4846    1.2193 H   0  0  0  0  0  0  0  0  0  0  0  0
   -3.8924   -0.1373    0.4646 C   0  0  0  0  0  0  0  0  0  0  0  0
   -4.8815    0.0072    0.6783 H   0  0  0  0  0  0  0  0  0  0  0  0
   -3.5062   -0.6304    1.4888 H   0  0  0  0  0  0  0  0  0  0  0  0
   -3.5080   -1.1156   -0.5982 O   0  0  0  0  0  0  0  0  0  0  0  0
  1  8  1  0  0  0  0
  1  3  1  0  0  0  0
  2  1  1  0  0  0  0
  4  1  1  0  0  0  0
  4  5  1  0  0  0  0
  6  4  1  0  0  0  0
  8 11  1  0  0  0  0
  8 10  1  0  0  0  0
  9  8  1  0  0  0  0
 11 12  1  0  0  0  0
 11 13  1  0  0  0  0
 14  4  1  0  0  0  0
 14 11  1  0  0  0  0
M  END
$$$$
Title Card Required
 OpenBabel06272217483D

 14 13  0  0  0  0  0  0  0  0999 V2000
   -1.6956    0.4605    0.0561 C   0  0  0  0  0  0  0  0  0  0  0  0
   -1.1699    0.9636   -0.7193 H   0  0  0  0  0  0  0  0  0  0  0  0
   -1.0609    0.5393    0.8950 H   0  0  0  0  0  0  0  0  0  0  0  0
   -1.7324   -1.0860   -0.4369 C   0  0  0  0  0  0  0  0  0  0  0  0
   -1.3211   -1.9232    0.2353 H   0  0  0  0  0  0  0  0  0  0  0  0
   -1.4384   -1.3122   -1.5074 H   0  0  0  0  0  0  0  0  0  0  0  0
    2.5343    0.1577    0.0548 Br  0  0  0  0  0 15  0  0  0  0  0  0
   -2.9946    1.1208    0.2180 C   0  0  0  0  0  0  0  0  0  0  0  0
   -3.3736    1.6564   -0.6768 H   0  0  0  0  0  0  0  0  0  0  0  0
   -2.9342    1.4393    1.2193 H   0  0  0  0  0  0  0  0  0  0  0  0
   -3.8832   -0.1281    0.4755 C   0  0  0  0  0  0  0  0  0  0  0  0
   -4.8968   -0.0256    0.5921 H   0  0  0  0  0  0  0  0  0  0  0  0
   -3.5345   -0.6159    1.5272 H   0  0  0  0  0  0  0  0  0  0  0  0
   -3.5292   -1.0993   -0.6036 O   0  0  0  0  0  0  0  0  0  0  0  0
  1  8  1  0  0  0  0
  1  3  1  0  0  0  0
  2  1  1  0  0  0  0
  4  1  1  0  0  0  0
  4  5  1  0  0  0  0
  6  4  1  0  0  0  0
  8 11  1  0  0  0  0
  8 10  1  0  0  0  0
  9  8  1  0  0  0  0
 11 12  1  0  0  0  0
 11 13  1  0  0  0  0
 14  4  1  0  0  0  0
 14 11  1  0  0  0  0
M  END
$$$$
Title Card Required
 OpenBabel06272217483D

 14 13  0  0  0  0  0  0  0  0999 V2000
   -1.7130    0.4569    0.0495 C   0  0  0  0  0  0  0  0  0  0  0  0
   -1.0974    1.0081   -0.7434 H   0  0  0  0  0  0  0  0  0  0  0  0
   -1.0429    0.5246    0.9299 H   0  0  0  0  0  0  0  0  0  0  0  0
   -1.7309   -1.0866   -0.4346 C   0  0  0  0  0  0  0  0  0  0  0  0
   -1.2788   -1.9323    0.2585 H   0  0  0  0  0  0  0  0  0  0  0  0
   -1.4609   -1.3132   -1.4939 H   0  0  0  0  0  0  0  0  0  0  0  0
    2.5395    0.1584    0.0551 Br  0  0  0  0  0 15  0  0  0  0  0  0
   -3.0010    1.0976    0.2130 C   0  0  0  0  0  0  0  0  0  0  0  0
   -3.4514    1.5770   -0.6436 H   0  0  0  0  0  0  0  0  0  0  0  0
   -2.9054    1.4363    1.2353 H   0  0  0  0  0  0  0  0  0  0  0  0
   -3.8679   -0.1234    0.4855 C   0  0  0  0  0  0  0  0  0  0  0  0
   -4.9601   -0.0499    0.5017 H   0  0  0  0  0  0  0  0  0  0  0  0
   -3.5719   -0.5850    1.5333 H   0  0  0  0  0  0  0  0  0  0  0  0
   -3.5470   -1.0822   -0.6063 O   0  0  0  0  0  0  0  0  0  0  0  0
  1  8  1  0  0  0  0
  1  3  1  0  0  0  0
  2  1  1  0  0  0  0
  4  1  1  0  0  0  0
  4  5  1  0  0  0  0
  6  4  1  0  0  0  0
  8 11  1  0  0  0  0
  8 10  1  0  0  0  0
  9  8  1  0  0  0  0
 11 12  1  0  0  0  0
 11 13  1  0  0  0  0
 14  4  1  0  0  0  0
 14 11  1  0  0  0  0
M  END
$$$$
Title Card Required
 OpenBabel06272217483D

 14 13  0  0  0  0  0  0  0  0999 V2000
   -1.7233    0.4507    0.0387 C   0  0  0  0  0  0  0  0  0  0  0  0
   -1.0298    1.0425   -0.7532 H   0  0  0  0  0  0  0  0  0  0  0  0
   -1.0296    0.5085    0.9637 H   0  0  0  0  0  0  0  0  0  0  0  0
   -1.7348   -1.0861   -0.4321 C   0  0  0  0  0  0  0  0  0  0  0  0
   -1.2583   -1.9104    0.2658 H   0  0  0  0  0  0  0  0  0  0  0  0
   -1.4850   -1.3064   -1.4681 H   0  0  0  0  0  0  0  0  0  0  0  0
    2.5448    0.1592    0.0554 Br  0  0  0  0  0 15  0  0  0  0  0  0
   -3.0110    1.0704    0.2106 C   0  0  0  0  0  0  0  0  0  0  0  0
   -3.5280    1.5132   -0.6099 H   0  0  0  0  0  0  0  0  0  0  0  0
   -2.8863    1.4712    1.2512 H   0  0  0  0  0  0  0  0  0  0  0  0
   -3.8508   -0.1234    0.4951 C   0  0  0  0  0  0  0  0  0  0  0  0
   -5.0301   -0.0663    0.4053 H   0  0  0  0  0  0  0  0  0  0  0  0
   -3.6177   -0.5423    1.5123 H   0  0  0  0  0  0  0  0  0  0  0  0
   -3.5618   -1.0639   -0.6062 O   0  0  0  0  0  0  0  0  0  0  0  0
  1  8  1  0  0  0  0
  1  3  1  0  0  0  0
  2  1  1  0  0  0  0
  4  1  1  0  0  0  0
  4  5  1  0  0  0  0
  6  4  1  0  0  0  0
  8 11  1  0  0  0  0
  8 10  1  0  0  0  0
  9  8  1  0  0  0  0
 11 13  1  0  0  0  0
 12 11  1  0  0  0  0
 14  4  1  0  0  0  0
 14 11  1  0  0  0  0
M  END
$$$$
Title Card Required
 OpenBabel06272217483D

 14 13  0  0  0  0  0  0  0  0999 V2000
   -1.7225    0.4422    0.0235 C   0  0  0  0  0  0  0  0  0  0  0  0
   -0.9841    1.0538   -0.7318 H   0  0  0  0  0  0  0  0  0  0  0  0
   -1.0373    0.4898    0.9768 H   0  0  0  0  0  0  0  0  0  0  0  0
   -1.7451   -1.0838   -0.4284 C   0  0  0  0  0  0  0  0  0  0  0  0
   -1.2642   -1.8551    0.2556 H   0  0  0  0  0  0  0  0  0  0  0  0
   -1.5073   -1.2943   -1.4435 H   0  0  0  0  0  0  0  0  0  0  0  0
    2.5504    0.1600    0.0557 Br  0  0  0  0  0 15  0  0  0  0  0  0
   -3.0248    1.0398    0.2135 C   0  0  0  0  0  0  0  0  0  0  0  0
   -3.6048    1.4722   -0.5864 H   0  0  0  0  0  0  0  0  0  0  0  0
   -2.8814    1.5387    1.2441 H   0  0  0  0  0  0  0  0  0  0  0  0
   -3.8369   -0.1287    0.5024 C   0  0  0  0  0  0  0  0  0  0  0  0
   -5.0657   -0.0733    0.3091 H   0  0  0  0  0  0  0  0  0  0  0  0
   -3.6687   -0.4988    1.4804 H   0  0  0  0  0  0  0  0  0  0  0  0
   -3.5732   -1.0439   -0.6028 O   0  0  0  0  0  0  0  0  0  0  0  0
  1  8  1  0  0  0  0
  1  3  1  0  0  0  0
  2  1  1  0  0  0  0
  4  1  1  0  0  0  0
  4  5  1  0  0  0  0
  6  4  1  0  0  0  0
  8 11  1  0  0  0  0
  8 10  1  0  0  0  0
  9  8  1  0  0  0  0
 11 13  1  0  0  0  0
 12 11  1  0  0  0  0
 14  4  1  0  0  0  0
 14 11  1  0  0  0  0
M  END
$$$$
Title Card Required
 OpenBabel06272217483D

 14 13  0  0  0  0  0  0  0  0999 V2000
   -1.7096    0.4321    0.0056 C   0  0  0  0  0  0  0  0  0  0  0  0
   -0.9725    1.0362   -0.6795 H   0  0  0  0  0  0  0  0  0  0  0  0
   -1.0717    0.4700    0.9603 H   0  0  0  0  0  0  0  0  0  0  0  0
   -1.7622   -1.0782   -0.4238 C   0  0  0  0  0  0  0  0  0  0  0  0
   -1.2930   -1.7836    0.2387 H   0  0  0  0  0  0  0  0  0  0  0  0
   -1.5226   -1.2818   -1.4390 H   0  0  0  0  0  0  0  0  0  0  0  0
    2.5560    0.1607    0.0560 Br  0  0  0  0  0 15  0  0  0  0  0  0
   -3.0409    1.0112    0.2219 C   0  0  0  0  0  0  0  0  0  0  0  0
   -3.6670    1.4576   -0.5748 H   0  0  0  0  0  0  0  0  0  0  0  0
   -2.8949    1.6211    1.1991 H   0  0  0  0  0  0  0  0  0  0  0  0
   -3.8316   -0.1387    0.5038 C   0  0  0  0  0  0  0  0  0  0  0  0
   -5.0439   -0.0679    0.2335 H   0  0  0  0  0  0  0  0  0  0  0  0
   -3.7142   -0.4770    1.4750 H   0  0  0  0  0  0  0  0  0  0  0  0
   -3.5792   -1.0244   -0.5959 O   0  0  0  0  0  0  0  0  0  0  0  0
  1  8  1  0  0  0  0
  1  3  1  0  0  0  0
  2  1  1  0  0  0  0
  4  1  1  0  0  0  0
  4  5  1  0  0  0  0
  6  4  1  0  0  0  0
  8 11  1  0  0  0  0
  8 10  1  0  0  0  0
  9  8  1  0  0  0  0
 11 13  1  0  0  0  0
 12 11  1  0  0  0  0
 14  4  1  0  0  0  0
 14 11  1  0  0  0  0
M  END
$$$$
Title Card Required
 OpenBabel06272217483D

 14 13  0  0  0  0  0  0  0  0999 V2000
   -1.6899    0.4220   -0.0116 C   0  0  0  0  0  0  0  0  0  0  0  0
   -0.9854    1.0022   -0.6185 H   0  0  0  0  0  0  0  0  0  0  0  0
   -1.1190    0.4513    0.9287 H   0  0  0  0  0  0  0  0  0  0  0  0
   -1.7841   -1.0686   -0.4209 C   0  0  0  0  0  0  0  0  0  0  0  0
   -1.3272   -1.7290    0.2364 H   0  0  0  0  0  0  0  0  0  0  0  0
   -1.5305   -1.2721   -1.4531 H   0  0  0  0  0  0  0  0  0  0  0  0
    2.5610    0.1614    0.0563 Br  0  0  0  0  0 15  0  0  0  0  0  0
   -3.0563    0.9899    0.2325 C   0  0  0  0  0  0  0  0  0  0  0  0
   -3.6998    1.4595   -0.5679 H   0  0  0  0  0  0  0  0  0  0  0  0
   -2.9221    1.6956    1.1271 H   0  0  0  0  0  0  0  0  0  0  0  0
   -3.8354   -0.1514    0.4991 C   0  0  0  0  0  0  0  0  0  0  0  0
   -4.9794   -0.0521    0.1909 H   0  0  0  0  0  0  0  0  0  0  0  0
   -3.7489   -0.4850    1.5089 H   0  0  0  0  0  0  0  0  0  0  0  0
   -3.5795   -1.0080   -0.5871 O   0  0  0  0  0  0  0  0  0  0  0  0
  1  8  1  0  0  0  0
  1  3  1  0  0  0  0
  2  1  1  0  0  0  0
  4  1  1  0  0  0  0
  4  5  1  0  0  0  0
  6  4  1  0  0  0  0
  8 11  1  0  0  0  0
  8 10  1  0  0  0  0
  9  8  1  0  0  0  0
 11 13  1  0  0  0  0
 12 11  1  0  0  0  0
 14  4  1  0  0  0  0
 14 11  1  0  0  0  0
M  END
$$$$
Title Card Required
 OpenBabel06272217483D

 14 13  0  0  0  0  0  0  0  0999 V2000
   -1.6688    0.4115   -0.0275 C   0  0  0  0  0  0  0  0  0  0  0  0
   -1.0005    0.9706   -0.5708 H   0  0  0  0  0  0  0  0  0  0  0  0
   -1.1657    0.4330    0.9023 H   0  0  0  0  0  0  0  0  0  0  0  0
   -1.8101   -1.0552   -0.4216 C   0  0  0  0  0  0  0  0  0  0  0  0
   -1.3571   -1.7036    0.2588 H   0  0  0  0  0  0  0  0  0  0  0  0
   -1.5352   -1.2645   -1.4714 H   0  0  0  0  0  0  0  0  0  0  0  0
    2.5657    0.1621    0.0565 Br  0  0  0  0  0 15  0  0  0  0  0  0
   -3.0700    0.9757    0.2430 C   0  0  0  0  0  0  0  0  0  0  0  0
   -3.7045    1.4668   -0.5606 H   0  0  0  0  0  0  0  0  0  0  0  0
   -2.9578    1.7578    1.0422 H   0  0  0  0  0  0  0  0  0  0  0  0
   -3.8459   -0.1663    0.4917 C   0  0  0  0  0  0  0  0  0  0  0  0
   -4.8969   -0.0283    0.1756 H   0  0  0  0  0  0  0  0  0  0  0  0
   -3.7776   -0.5119    1.5577 H   0  0  0  0  0  0  0  0  0  0  0  0
   -3.5752   -0.9946   -0.5772 O   0  0  0  0  0  0  0  0  0  0  0  0
  1  8  1  0  0  0  0
  1  3  1  0  0  0  0
  2  1  1  0  0  0  0
  4  1  1  0  0  0  0
  4  5  1  0  0  0  0
  6  4  1  0  0  0  0
  8 11  1  0  0  0  0
  8 10  1  0  0  0  0
  9  8  1  0  0  0  0
 11 13  1  0  0  0  0
 12 11  1  0  0  0  0
 14  4  1  0  0  0  0
 14 11  1  0  0  0  0
M  END
$$$$
Title Card Required
 OpenBabel06272217483D

 14 13  0  0  0  0  0  0  0  0999 V2000
   -1.6495    0.3991   -0.0422 C   0  0  0  0  0  0  0  0  0  0  0  0
   -0.9947    0.9596   -0.5550 H   0  0  0  0  0  0  0  0  0  0  0  0
   -1.2031    0.4134    0.8982 H   0  0  0  0  0  0  0  0  0  0  0  0
   -1.8409   -1.0384   -0.4265 C   0  0  0  0  0  0  0  0  0  0  0  0
   -1.3867   -1.7026    0.3016 H   0  0  0  0  0  0  0  0  0  0  0  0
   -1.5400   -1.2582   -1.4834 H   0  0  0  0  0  0  0  0  0  0  0  0
    2.5702    0.1627    0.0568 Br  0  0  0  0  0 15  0  0  0  0  0  0
   -3.0821    0.9676    0.2527 C   0  0  0  0  0  0  0  0  0  0  0  0
   -3.6844    1.4743   -0.5535 H   0  0  0  0  0  0  0  0  0  0  0  0
   -2.9999    1.8110    0.9537 H   0  0  0  0  0  0  0  0  0  0  0  0
   -3.8611   -0.1842    0.4849 C   0  0  0  0  0  0  0  0  0  0  0  0
   -4.8229    0.0053    0.1799 H   0  0  0  0  0  0  0  0  0  0  0  0
   -3.8048   -0.5492    1.5987 H   0  0  0  0  0  0  0  0  0  0  0  0
   -3.5660   -0.9837   -0.5663 O   0  0  0  0  0  0  0  0  0  0  0  0
  1  8  1  0  0  0  0
  1  3  1  0  0  0  0
  2  1  1  0  0  0  0
  4  1  1  0  0  0  0
  4  5  1  0  0  0  0
  6  4  1  0  0  0  0
  8 11  1  0  0  0  0
  8 10  1  0  0  0  0
  9  8  1  0  0  0  0
 11 13  1  0  0  0  0
 12 11  1  0  0  0  0
 14  4  1  0  0  0  0
 14 11  1  0  0  0  0
M  END
$$$$
Title Card Required
 OpenBabel06272217483D

 14 13  0  0  0  0  0  0  0  0999 V2000
   -1.6343    0.3852   -0.0547 C   0  0  0  0  0  0  0  0  0  0  0  0
   -0.9571    0.9782   -0.5796 H   0  0  0  0  0  0  0  0  0  0  0  0
   -1.2252    0.3920    0.9241 H   0  0  0  0  0  0  0  0  0  0  0  0
   -1.8755   -1.0201   -0.4351 C   0  0  0  0  0  0  0  0  0  0  0  0
   -1.4254   -1.7124    0.3481 H   0  0  0  0  0  0  0  0  0  0  0  0
   -1.5477   -1.2534   -1.4824 H   0  0  0  0  0  0  0  0  0  0  0  0
    2.5748    0.1634    0.0570 Br  0  0  0  0  0 15  0  0  0  0  0  0
   -3.0918    0.9650    0.2605 C   0  0  0  0  0  0  0  0  0  0  0  0
   -3.6439    1.4783   -0.5516 H   0  0  0  0  0  0  0  0  0  0  0  0
   -3.0442    1.8578    0.8752 H   0  0  0  0  0  0  0  0  0  0  0  0
   -3.8776   -0.2046    0.4814 C   0  0  0  0  0  0  0  0  0  0  0  0
   -4.7974    0.0525    0.1936 H   0  0  0  0  0  0  0  0  0  0  0  0
   -3.8317   -0.5903    1.6153 H   0  0  0  0  0  0  0  0  0  0  0  0
   -3.5520   -0.9760   -0.5551 O   0  0  0  0  0  0  0  0  0  0  0  0
  1  8  1  0  0  0  0
  1  3  1  0  0  0  0
  2  1  1  0  0  0  0
  4  1  1  0  0  0  0
  4  5  1  0  0  0  0
  6  4  1  0  0  0  0
  8 11  1  0  0  0  0
  8 10  1  0  0  0  0
  9  8  1  0  0  0  0
 11 13  1  0  0  0  0
 12 11  1  0  0  0  0
 14  4  1  0  0  0  0
 14 11  1  0  0  0  0
M  END
$$$$
Title Card Required
 OpenBabel06272217483D

 14 13  0  0  0  0  0  0  0  0999 V2000
   -1.6230    0.3728   -0.0641 C   0  0  0  0  0  0  0  0  0  0  0  0
   -0.9058    1.0102   -0.6269 H   0  0  0  0  0  0  0  0  0  0  0  0
   -1.2334    0.3701    0.9661 H   0  0  0  0  0  0  0  0  0  0  0  0
   -1.9110   -1.0034   -0.4454 C   0  0  0  0  0  0  0  0  0  0  0  0
   -1.4785   -1.7189    0.3793 H   0  0  0  0  0  0  0  0  0  0  0  0
   -1.5589   -1.2512   -1.4692 H   0  0  0  0  0  0  0  0  0  0  0  0
    2.5791    0.1640    0.0573 Br  0  0  0  0  0 15  0  0  0  0  0  0
   -3.0981    0.9668    0.2658 C   0  0  0  0  0  0  0  0  0  0  0  0
   -3.5937    1.4769   -0.5618 H   0  0  0  0  0  0  0  0  0  0  0  0
   -3.0850    1.8991    0.8203 H   0  0  0  0  0  0  0  0  0  0  0  0
   -3.8926   -0.2256    0.4826 C   0  0  0  0  0  0  0  0  0  0  0  0
   -4.8365    0.1109    0.2092 H   0  0  0  0  0  0  0  0  0  0  0  0
   -3.8574   -0.6296    1.6024 H   0  0  0  0  0  0  0  0  0  0  0  0
   -3.5342   -0.9720   -0.5449 O   0  0  0  0  0  0  0  0  0  0  0  0
  1  8  1  0  0  0  0
  1  3  1  0  0  0  0
  2  1  1  0  0  0  0
  4  1  1  0  0  0  0
  4  5  1  0  0  0  0
  6  4  1  0  0  0  0
  8 11  1  0  0  0  0
  8 10  1  0  0  0  0
  9  8  1  0  0  0  0
 11 13  1  0  0  0  0
 12 11  1  0  0  0  0
 14  4  1  0  0  0  0
 14 11  1  0  0  0  0
M  END
$$$$
Title Card Required
 OpenBabel06272217483D

 14 13  0  0  0  0  0  0  0  0999 V2000
   -1.6134    0.3639   -0.0705 C   0  0  0  0  0  0  0  0  0  0  0  0
   -0.8627    1.0350   -0.6751 H   0  0  0  0  0  0  0  0  0  0  0  0
   -1.2334    0.3487    1.0040 H   0  0  0  0  0  0  0  0  0  0  0  0
   -1.9470   -0.9892   -0.4560 C   0  0  0  0  0  0  0  0  0  0  0  0
   -1.5463   -1.7162    0.3881 H   0  0  0  0  0  0  0  0  0  0  0  0
   -1.5732   -1.2528   -1.4492 H   0  0  0  0  0  0  0  0  0  0  0  0
    2.5832    0.1646    0.0575 Br  0  0  0  0  0 15  0  0  0  0  0  0
   -3.1010    0.9717    0.2691 C   0  0  0  0  0  0  0  0  0  0  0  0
   -3.5415    1.4698   -0.5881 H   0  0  0  0  0  0  0  0  0  0  0  0
   -3.1205    1.9354    0.7906 H   0  0  0  0  0  0  0  0  0  0  0  0
   -3.9076   -0.2452    0.4876 C   0  0  0  0  0  0  0  0  0  0  0  0
   -4.9113    0.1698    0.2290 H   0  0  0  0  0  0  0  0  0  0  0  0
   -3.8816   -0.6659    1.5652 H   0  0  0  0  0  0  0  0  0  0  0  0
   -3.5135   -0.9714   -0.5362 O   0  0  0  0  0  0  0  0  0  0  0  0
  1  8  1  0  0  0  0
  1  3  1  0  0  0  0
  2  1  1  0  0  0  0
  4  1  1  0  0  0  0
  4  5  1  0  0  0  0
  6  4  1  0  0  0  0
  8 11  1  0  0  0  0
  8 10  1  0  0  0  0
  9  8  1  0  0  0  0
 11 13  1  0  0  0  0
 12 11  1  0  0  0  0
 14  4  1  0  0  0  0
 14 11  1  0  0  0  0
M  END
$$$$
Title Card Required
 OpenBabel06272217483D

 14 13  0  0  0  0  0  0  0  0999 V2000
   -1.6038    0.3597   -0.0737 C   0  0  0  0  0  0  0  0  0  0  0  0
   -0.8385    1.0419   -0.7126 H   0  0  0  0  0  0  0  0  0  0  0  0
   -1.2283    0.3281    1.0251 H   0  0  0  0  0  0  0  0  0  0  0  0
   -1.9844   -0.9777   -0.4662 C   0  0  0  0  0  0  0  0  0  0  0  0
   -1.6276   -1.7034    0.3741 H   0  0  0  0  0  0  0  0  0  0  0  0
   -1.5898   -1.2594   -1.4291 H   0  0  0  0  0  0  0  0  0  0  0  0
    2.5872    0.1652    0.0577 Br  0  0  0  0  0 15  0  0  0  0  0  0
   -3.1011    0.9792    0.2711 C   0  0  0  0  0  0  0  0  0  0  0  0
   -3.4904    1.4558   -0.6311 H   0  0  0  0  0  0  0  0  0  0  0  0
   -3.1509    1.9647    0.7829 H   0  0  0  0  0  0  0  0  0  0  0  0
   -3.9246   -0.2620    0.4951 C   0  0  0  0  0  0  0  0  0  0  0  0
   -4.9896    0.2168    0.2571 H   0  0  0  0  0  0  0  0  0  0  0  0
   -3.9044   -0.7010    1.5126 H   0  0  0  0  0  0  0  0  0  0  0  0
   -3.4903   -0.9740   -0.5289 O   0  0  0  0  0  0  0  0  0  0  0  0
  1  8  1  0  0  0  0
  1  3  1  0  0  0  0
  2  1  1  0  0  0  0
  4  1  1  0  0  0  0
  4  5  1  0  0  0  0
  6  4  1  0  0  0  0
  8 11  1  0  0  0  0
  8 10  1  0  0  0  0
  9  8  1  0  0  0  0
 11 13  1  0  0  0  0
 12 11  1  0  0  0  0
 14  4  1  0  0  0  0
 14 11  1  0  0  0  0
M  END
$$$$
Title Card Required
 OpenBabel06272217483D

 14 13  0  0  0  0  0  0  0  0999 V2000
   -1.5940    0.3604   -0.0735 C   0  0  0  0  0  0  0  0  0  0  0  0
   -0.8373    1.0272   -0.7340 H   0  0  0  0  0  0  0  0  0  0  0  0
   -1.2184    0.3088    1.0227 H   0  0  0  0  0  0  0  0  0  0  0  0
   -2.0230   -0.9687   -0.4756 C   0  0  0  0  0  0  0  0  0  0  0  0
   -1.7175   -1.6832    0.3409 H   0  0  0  0  0  0  0  0  0  0  0  0
   -1.6075   -1.2722   -1.4154 H   0  0  0  0  0  0  0  0  0  0  0  0
    2.5912    0.1657    0.0580 Br  0  0  0  0  0 15  0  0  0  0  0  0
   -3.0987    0.9889    0.2717 C   0  0  0  0  0  0  0  0  0  0  0  0
   -3.4418    1.4334   -0.6860 H   0  0  0  0  0  0  0  0  0  0  0  0
   -3.1759    1.9828    0.7929 H   0  0  0  0  0  0  0  0  0  0  0  0
   -3.9445   -0.2745    0.5033 C   0  0  0  0  0  0  0  0  0  0  0  0
   -5.0511    0.2422    0.2938 H   0  0  0  0  0  0  0  0  0  0  0  0
   -3.9253   -0.7387    1.4589 H   0  0  0  0  0  0  0  0  0  0  0  0
   -3.4654   -0.9794   -0.5231 O   0  0  0  0  0  0  0  0  0  0  0  0
  1  8  1  0  0  0  0
  1  3  1  0  0  0  0
  2  1  1  0  0  0  0
  4  1  1  0  0  0  0
  4  5  1  0  0  0  0
  6  4  1  0  0  0  0
  8 11  1  0  0  0  0
  8 10  1  0  0  0  0
  9  8  1  0  0  0  0
 11 13  1  0  0  0  0
 12 11  1  0  0  0  0
 14  4  1  0  0  0  0
 14 11  1  0  0  0  0
M  END
$$$$
Title Card Required
 OpenBabel06272217483D

 14 13  0  0  0  0  0  0  0  0999 V2000
   -1.5842    0.3657   -0.0700 C   0  0  0  0  0  0  0  0  0  0  0  0
   -0.8578    0.9925   -0.7381 H   0  0  0  0  0  0  0  0  0  0  0  0
   -1.2031    0.2916    0.9973 H   0  0  0  0  0  0  0  0  0  0  0  0
   -2.0621   -0.9618   -0.4841 C   0  0  0  0  0  0  0  0  0  0  0  0
   -1.8078   -1.6625    0.2979 H   0  0  0  0  0  0  0  0  0  0  0  0
   -1.6254   -1.2912   -1.4114 H   0  0  0  0  0  0  0  0  0  0  0  0
    2.5951    0.1663    0.0582 Br  0  0  0  0  0 15  0  0  0  0  0  0
   -3.0944    1.0006    0.2710 C   0  0  0  0  0  0  0  0  0  0  0  0
   -3.3966    1.4016   -0.7432 H   0  0  0  0  0  0  0  0  0  0  0  0
   -3.1949    1.9863    0.8153 H   0  0  0  0  0  0  0  0  0  0  0  0
   -3.9668   -0.2816    0.5103 C   0  0  0  0  0  0  0  0  0  0  0  0
   -5.0865    0.2415    0.3359 H   0  0  0  0  0  0  0  0  0  0  0  0
   -3.9438   -0.7836    1.4218 H   0  0  0  0  0  0  0  0  0  0  0  0
   -3.4404   -0.9870   -0.5190 O   0  0  0  0  0  0  0  0  0  0  0  0
  1  8  1  0  0  0  0
  1  3  1  0  0  0  0
  2  1  1  0  0  0  0
  4  1  1  0  0  0  0
  4  5  1  0  0  0  0
  6  4  1  0  0  0  0
  8 11  1  0  0  0  0
  8 10  1  0  0  0  0
  9  8  1  0  0  0  0
 11 13  1  0  0  0  0
 12 11  1  0  0  0  0
 14  4  1  0  0  0  0
 14 11  1  0  0  0  0
M  END
$$$$
Title Card Required
 OpenBabel06272217483D

 14 13  0  0  0  0  0  0  0  0999 V2000
   -1.5755    0.3744   -0.0635 C   0  0  0  0  0  0  0  0  0  0  0  0
   -0.8946    0.9441   -0.7287 H   0  0  0  0  0  0  0  0  0  0  0  0
   -1.1800    0.2760    0.9550 H   0  0  0  0  0  0  0  0  0  0  0  0
   -2.1001   -0.9561   -0.4922 C   0  0  0  0  0  0  0  0  0  0  0  0
   -1.8885   -1.6514    0.2587 H   0  0  0  0  0  0  0  0  0  0  0  0
   -1.6443   -1.3146   -1.4161 H   0  0  0  0  0  0  0  0  0  0  0  0
    2.5990    0.1669    0.0584 Br  0  0  0  0  0 15  0  0  0  0  0  0
   -3.0885    1.0140    0.2688 C   0  0  0  0  0  0  0  0  0  0  0  0
   -3.3552    1.3609   -0.7931 H   0  0  0  0  0  0  0  0  0  0  0  0
   -3.2082    1.9745    0.8450 H   0  0  0  0  0  0  0  0  0  0  0  0
   -3.9908   -0.2831    0.5149 C   0  0  0  0  0  0  0  0  0  0  0  0
   -5.0939    0.2138    0.3798 H   0  0  0  0  0  0  0  0  0  0  0  0
   -3.9592   -0.8385    1.4111 H   0  0  0  0  0  0  0  0  0  0  0  0
   -3.4174   -0.9962   -0.5166 O   0  0  0  0  0  0  0  0  0  0  0  0
  1  8  1  0  0  0  0
  1  3  1  0  0  0  0
  2  1  1  0  0  0  0
  4  1  1  0  0  0  0
  4  5  1  0  0  0  0
  6  4  1  0  0  0  0
  8 11  1  0  0  0  0
  8 10  1  0  0  0  0
  9  8  1  0  0  0  0
 11 13  1  0  0  0  0
 12 11  1  0  0  0  0
 14  4  1  0  0  0  0
 14 11  1  0  0  0  0
M  END
$$$$
Title Card Required
 OpenBabel06272217483D

 14 13  0  0  0  0  0  0  0  0999 V2000
   -1.5690    0.3855   -0.0541 C   0  0  0  0  0  0  0  0  0  0  0  0
   -0.9376    0.8917   -0.7157 H   0  0  0  0  0  0  0  0  0  0  0  0
   -1.1442    0.2609    0.9067 H   0  0  0  0  0  0  0  0  0  0  0  0
   -2.1359   -0.9506   -0.5011 C   0  0  0  0  0  0  0  0  0  0  0  0
   -1.9509   -1.6603    0.2363 H   0  0  0  0  0  0  0  0  0  0  0  0
   -1.6669   -1.3401   -1.4262 H   0  0  0  0  0  0  0  0  0  0  0  0
    2.6030    0.1675    0.0586 Br  0  0  0  0  0 15  0  0  0  0  0  0
   -3.0810    1.0287    0.2648 C   0  0  0  0  0  0  0  0  0  0  0  0
   -3.3175    1.3122   -0.8289 H   0  0  0  0  0  0  0  0  0  0  0  0
   -3.2162    1.9486    0.8793 H   0  0  0  0  0  0  0  0  0  0  0  0
   -4.0159   -0.2796    0.5173 C   0  0  0  0  0  0  0  0  0  0  0  0
   -5.0759    0.1595    0.4220 H   0  0  0  0  0  0  0  0  0  0  0  0
   -3.9714   -0.9008    1.4231 H   0  0  0  0  0  0  0  0  0  0  0  0
   -3.3983   -1.0069   -0.5158 O   0  0  0  0  0  0  0  0  0  0  0  0
  1  8  1  0  0  0  0
  1  3  1  0  0  0  0
  2  1  1  0  0  0  0
  4  1  1  0  0  0  0
  4  5  1  0  0  0  0
  6  4  1  0  0  0  0
  8 11  1  0  0  0  0
  8 10  1  0  0  0  0
  9  8  1  0  0  0  0
 11 13  1  0  0  0  0
 12 11  1  0  0  0  0
 14  4  1  0  0  0  0
 14 11  1  0  0  0  0
M  END
$$$$
Title Card Required
 OpenBabel06272217483D

 14 13  0  0  0  0  0  0  0  0999 V2000
   -1.5678    0.3982   -0.0408 C   0  0  0  0  0  0  0  0  0  0  0  0
   -0.9706    0.8506   -0.7191 H   0  0  0  0  0  0  0  0  0  0  0  0
   -1.0847    0.2431    0.8668 H   0  0  0  0  0  0  0  0  0  0  0  0
   -2.1668   -0.9452   -0.5114 C   0  0  0  0  0  0  0  0  0  0  0  0
   -1.9853   -1.6969    0.2389 H   0  0  0  0  0  0  0  0  0  0  0  0
   -1.6970   -1.3650   -1.4381 H   0  0  0  0  0  0  0  0  0  0  0  0
    2.6074    0.1682    0.0588 Br  0  0  0  0  0 15  0  0  0  0  0  0
   -3.0713    1.0449    0.2583 C   0  0  0  0  0  0  0  0  0  0  0  0
   -3.2839    1.2563   -0.8445 H   0  0  0  0  0  0  0  0  0  0  0  0
   -3.2190    1.9100    0.9182 H   0  0  0  0  0  0  0  0  0  0  0  0
   -4.0415   -0.2721    0.5185 C   0  0  0  0  0  0  0  0  0  0  0  0
   -5.0425    0.0778    0.4579 H   0  0  0  0  0  0  0  0  0  0  0  0
   -3.9796   -0.9617    1.4455 H   0  0  0  0  0  0  0  0  0  0  0  0
   -3.3872   -1.0190   -0.5171 O   0  0  0  0  0  0  0  0  0  0  0  0
  1  8  1  0  0  0  0
  1  3  1  0  0  0  0
  2  1  1  0  0  0  0
  4  1  1  0  0  0  0
  4  5  1  0  0  0  0
  6  4  1  0  0  0  0
  8 11  1  0  0  0  0
  8 10  1  0  0  0  0
  9  8  1  0  0  0  0
 11 13  1  0  0  0  0
 12 11  1  0  0  0  0
 14  4  1  0  0  0  0
 14 11  1  0  0  0  0
M  END
$$$$
Title Card Required
 OpenBabel06272217483D

 14 13  0  0  0  0  0  0  0  0999 V2000
   -1.5757    0.4109   -0.0223 C   0  0  0  0  0  0  0  0  0  0  0  0
   -0.9740    0.8409   -0.7650 H   0  0  0  0  0  0  0  0  0  0  0  0
   -0.9900    0.2199    0.8511 H   0  0  0  0  0  0  0  0  0  0  0  0
   -2.1853   -0.9413   -0.5218 C   0  0  0  0  0  0  0  0  0  0  0  0
   -1.9773   -1.7549    0.2630 H   0  0  0  0  0  0  0  0  0  0  0  0
   -1.7375   -1.3835   -1.4483 H   0  0  0  0  0  0  0  0  0  0  0  0
    2.6125    0.1690    0.0591 Br  0  0  0  0  0 15  0  0  0  0  0  0
   -3.0587    1.0611    0.2492 C   0  0  0  0  0  0  0  0  0  0  0  0
   -3.2600    1.2006   -0.8343 H   0  0  0  0  0  0  0  0  0  0  0  0
   -3.2160    1.8653    0.9613 H   0  0  0  0  0  0  0  0  0  0  0  0
   -4.0624   -0.2629    0.5200 C   0  0  0  0  0  0  0  0  0  0  0  0
   -5.0345   -0.0213    0.4752 H   0  0  0  0  0  0  0  0  0  0  0  0
   -3.9819   -1.0016    1.4603 H   0  0  0  0  0  0  0  0  0  0  0  0
   -3.3918   -1.0324   -0.5212 O   0  0  0  0  0  0  0  0  0  0  0  0
  1  8  1  0  0  0  0
  1  3  1  0  0  0  0
  2  1  1  0  0  0  0
  4 14  1  0  0  0  0
  4  1  1  0  0  0  0
  4  5  1  0  0  0  0
  6  4  1  0  0  0  0
  8 11  1  0  0  0  0
  8 10  1  0  0  0  0
  9  8  1  0  0  0  0
 11 13  1  0  0  0  0
 12 11  1  0  0  0  0
 14 11  1  0  0  0  0
M  END
$$$$
Title Card Required
 OpenBabel06272217483D

 14 13  0  0  0  0  0  0  0  0999 V2000
   -1.5903    0.4215   -0.0022 C   0  0  0  0  0  0  0  0  0  0  0  0
   -0.9606    0.8579   -0.8322 H   0  0  0  0  0  0  0  0  0  0  0  0
   -0.8857    0.1990    0.8506 H   0  0  0  0  0  0  0  0  0  0  0  0
   -2.1841   -0.9420   -0.5284 C   0  0  0  0  0  0  0  0  0  0  0  0
   -1.9296   -1.8020    0.2846 H   0  0  0  0  0  0  0  0  0  0  0  0
   -1.7787   -1.3885   -1.4551 H   0  0  0  0  0  0  0  0  0  0  0  0
    2.6173    0.1697    0.0594 Br  0  0  0  0  0 15  0  0  0  0  0  0
   -3.0452    1.0726    0.2402 C   0  0  0  0  0  0  0  0  0  0  0  0
   -3.2552    1.1665   -0.8098 H   0  0  0  0  0  0  0  0  0  0  0  0
   -3.2080    1.8315    1.0000 H   0  0  0  0  0  0  0  0  0  0  0  0
   -4.0695   -0.2560    0.5224 C   0  0  0  0  0  0  0  0  0  0  0  0
   -5.1002   -0.1070    0.4635 H   0  0  0  0  0  0  0  0  0  0  0  0
   -3.9763   -0.9995    1.4538 H   0  0  0  0  0  0  0  0  0  0  0  0
   -3.4151   -1.0443   -0.5272 O   0  0  0  0  0  0  0  0  0  0  0  0
  1  8  1  0  0  0  0
  1  3  1  0  0  0  0
  2  1  1  0  0  0  0
  4 14  1  0  0  0  0
  4  1  1  0  0  0  0
  4  5  1  0  0  0  0
  6  4  1  0  0  0  0
  8 11  1  0  0  0  0
  8 10  1  0  0  0  0
  9  8  1  0  0  0  0
 11 13  1  0  0  0  0
 12 11  1  0  0  0  0
 14 11  1  0  0  0  0
M  END
$$$$
Title Card Required
 OpenBabel06272217483D

 14 13  0  0  0  0  0  0  0  0999 V2000
   -1.6052    0.4300    0.0161 C   0  0  0  0  0  0  0  0  0  0  0  0
   -0.9596    0.8782   -0.8794 H   0  0  0  0  0  0  0  0  0  0  0  0
   -0.8030    0.1891    0.8412 H   0  0  0  0  0  0  0  0  0  0  0  0
   -2.1697   -0.9472   -0.5301 C   0  0  0  0  0  0  0  0  0  0  0  0
   -1.8647   -1.8214    0.2877 H   0  0  0  0  0  0  0  0  0  0  0  0
   -1.8117   -1.3823   -1.4627 H   0  0  0  0  0  0  0  0  0  0  0  0
    2.6217    0.1704    0.0596 Br  0  0  0  0  0 15  0  0  0  0  0  0
   -3.0323    1.0787    0.2342 C   0  0  0  0  0  0  0  0  0  0  0  0
   -3.2697    1.1604   -0.7932 H   0  0  0  0  0  0  0  0  0  0  0  0
   -3.1973    1.8128    1.0287 H   0  0  0  0  0  0  0  0  0  0  0  0
   -4.0671   -0.2519    0.5249 C   0  0  0  0  0  0  0  0  0  0  0  0
   -5.1956   -0.1763    0.4321 H   0  0  0  0  0  0  0  0  0  0  0  0
   -3.9640   -0.9618    1.4320 H   0  0  0  0  0  0  0  0  0  0  0  0
   -3.4496   -1.0541   -0.5337 O   0  0  0  0  0  0  0  0  0  0  0  0
  1  8  1  0  0  0  0
  1  3  1  0  0  0  0
  2  1  1  0  0  0  0
  4  1  1  0  0  0  0
  4  5  1  0  0  0  0
  6  4  1  0  0  0  0
  8 11  1  0  0  0  0
  8 10  1  0  0  0  0
  9  8  1  0  0  0  0
 11 13  1  0  0  0  0
 12 11  1  0  0  0  0
 14  4  1  0  0  0  0
 14 11  1  0  0  0  0
M  END
$$$$
Title Card Required
 OpenBabel06272217483D

 14 13  0  0  0  0  0  0  0  0999 V2000
   -1.6182    0.4369    0.0320 C   0  0  0  0  0  0  0  0  0  0  0  0
   -0.9803    0.8930   -0.8942 H   0  0  0  0  0  0  0  0  0  0  0  0
   -0.7505    0.1928    0.8149 H   0  0  0  0  0  0  0  0  0  0  0  0
   -2.1486   -0.9563   -0.5275 C   0  0  0  0  0  0  0  0  0  0  0  0
   -1.7953   -1.8136    0.2699 H   0  0  0  0  0  0  0  0  0  0  0  0
   -1.8340   -1.3688   -1.4762 H   0  0  0  0  0  0  0  0  0  0  0  0
    2.6258    0.1711    0.0598 Br  0  0  0  0  0 15  0  0  0  0  0  0
   -3.0200    1.0806    0.2317 C   0  0  0  0  0  0  0  0  0  0  0  0
   -3.3002    1.1793   -0.7922 H   0  0  0  0  0  0  0  0  0  0  0  0
   -3.1840    1.8049    1.0459 H   0  0  0  0  0  0  0  0  0  0  0  0
   -4.0612   -0.2493    0.5263 C   0  0  0  0  0  0  0  0  0  0  0  0
   -5.2699   -0.2352    0.3919 H   0  0  0  0  0  0  0  0  0  0  0  0
   -3.9458   -0.9012    1.4066 H   0  0  0  0  0  0  0  0  0  0  0  0
   -3.4899   -1.0623   -0.5404 O   0  0  0  0  0  0  0  0  0  0  0  0
  1  8  1  0  0  0  0
  1  3  1  0  0  0  0
  2  1  1  0  0  0  0
  4  1  1  0  0  0  0
  4  5  1  0  0  0  0
  6  4  1  0  0  0  0
  8 11  1  0  0  0  0
  8 10  1  0  0  0  0
  9  8  1  0  0  0  0
 11 13  1  0  0  0  0
 12 11  1  0  0  0  0
 14  4  1  0  0  0  0
 14 11  1  0  0  0  0
M  END
$$$$
Title Card Required
 OpenBabel06272217483D

 14 13  0  0  0  0  0  0  0  0999 V2000
   -1.6284    0.4421    0.0449 C   0  0  0  0  0  0  0  0  0  0  0  0
   -1.0216    0.9013   -0.8770 H   0  0  0  0  0  0  0  0  0  0  0  0
   -0.7302    0.2102    0.7747 H   0  0  0  0  0  0  0  0  0  0  0  0
   -2.1252   -0.9684   -0.5214 C   0  0  0  0  0  0  0  0  0  0  0  0
   -1.7297   -1.7828    0.2330 H   0  0  0  0  0  0  0  0  0  0  0  0
   -1.8450   -1.3497   -1.4977 H   0  0  0  0  0  0  0  0  0  0  0  0
    2.6297    0.1717    0.0600 Br  0  0  0  0  0 15  0  0  0  0  0  0
   -3.0091    1.0792    0.2324 C   0  0  0  0  0  0  0  0  0  0  0  0
   -3.3407    1.2189   -0.8005 H   0  0  0  0  0  0  0  0  0  0  0  0
   -3.1683    1.8045    1.0509 H   0  0  0  0  0  0  0  0  0  0  0  0
   -4.0550   -0.2476    0.5250 C   0  0  0  0  0  0  0  0  0  0  0  0
   -5.3018   -0.2819    0.3514 H   0  0  0  0  0  0  0  0  0  0  0  0
   -3.9219   -0.8322    1.3927 H   0  0  0  0  0  0  0  0  0  0  0  0
   -3.5318   -1.0692   -0.5466 O   0  0  0  0  0  0  0  0  0  0  0  0
  1  8  1  0  0  0  0
  1  3  1  0  0  0  0
  2  1  1  0  0  0  0
  4  1  1  0  0  0  0
  4  5  1  0  0  0  0
  6  4  1  0  0  0  0
  8 11  1  0  0  0  0
  8 10  1  0  0  0  0
  9  8  1  0  0  0  0
 11 13  1  0  0  0  0
 12 11  1  0  0  0  0
 14  4  1  0  0  0  0
 14 11  1  0  0  0  0
M  END
$$$$
Title Card Required
 OpenBabel06272217483D

 14 13  0  0  0  0  0  0  0  0999 V2000
   -1.6360    0.4455    0.0544 C   0  0  0  0  0  0  0  0  0  0  0  0
   -1.0774    0.9047   -0.8356 H   0  0  0  0  0  0  0  0  0  0  0  0
   -0.7377    0.2389    0.7288 H   0  0  0  0  0  0  0  0  0  0  0  0
   -2.1023   -0.9822   -0.5132 C   0  0  0  0  0  0  0  0  0  0  0  0
   -1.6727   -1.7389    0.1844 H   0  0  0  0  0  0  0  0  0  0  0  0
   -1.8463   -1.3255   -1.5240 H   0  0  0  0  0  0  0  0  0  0  0  0
    2.6333    0.1723    0.0603 Br  0  0  0  0  0 15  0  0  0  0  0  0
   -3.0005    1.0755    0.2351 C   0  0  0  0  0  0  0  0  0  0  0  0
   -3.3828    1.2727   -0.8058 H   0  0  0  0  0  0  0  0  0  0  0  0
   -3.1507    1.8096    1.0453 H   0  0  0  0  0  0  0  0  0  0  0  0
   -4.0498   -0.2457    0.5199 C   0  0  0  0  0  0  0  0  0  0  0  0
   -5.2903   -0.3136    0.3167 H   0  0  0  0  0  0  0  0  0  0  0  0
   -3.8923   -0.7687    1.4042 H   0  0  0  0  0  0  0  0  0  0  0  0
   -3.5725   -1.0751   -0.5520 O   0  0  0  0  0  0  0  0  0  0  0  0
  1  8  1  0  0  0  0
  1  3  1  0  0  0  0
  2  1  1  0  0  0  0
  4  1  1  0  0  0  0
  4  5  1  0  0  0  0
  6  4  1  0  0  0  0
  8 11  1  0  0  0  0
  8 10  1  0  0  0  0
  9  8  1  0  0  0  0
 11 13  1  0  0  0  0
 12 11  1  0  0  0  0
 14  4  1  0  0  0  0
 14 11  1  0  0  0  0
M  END
$$$$
Title Card Required
 OpenBabel06272217483D

 14 13  0  0  0  0  0  0  0  0999 V2000
   -1.6421    0.4471    0.0607 C   0  0  0  0  0  0  0  0  0  0  0  0
   -1.1400    0.9073   -0.7826 H   0  0  0  0  0  0  0  0  0  0  0  0
   -0.7634    0.2754    0.6870 H   0  0  0  0  0  0  0  0  0  0  0  0
   -2.0810   -0.9963   -0.5047 C   0  0  0  0  0  0  0  0  0  0  0  0
   -1.6221   -1.6961    0.1354 H   0  0  0  0  0  0  0  0  0  0  0  0
   -1.8408   -1.2954   -1.5500 H   0  0  0  0  0  0  0  0  0  0  0  0
    2.6369    0.1729    0.0605 Br  0  0  0  0  0 15  0  0  0  0  0  0
   -2.9948    1.0702    0.2388 C   0  0  0  0  0  0  0  0  0  0  0  0
   -3.4197    1.3348   -0.7985 H   0  0  0  0  0  0  0  0  0  0  0  0
   -3.1316    1.8186    1.0322 H   0  0  0  0  0  0  0  0  0  0  0  0
   -4.0457   -0.2433    0.5108 C   0  0  0  0  0  0  0  0  0  0  0  0
   -5.2420   -0.3294    0.2910 H   0  0  0  0  0  0  0  0  0  0  0  0
   -3.8575   -0.7150    1.4435 H   0  0  0  0  0  0  0  0  0  0  0  0
   -3.6108   -1.0804   -0.5564 O   0  0  0  0  0  0  0  0  0  0  0  0
  1  8  1  0  0  0  0
  1  3  1  0  0  0  0
  2  1  1  0  0  0  0
  4  1  1  0  0  0  0
  4  5  1  0  0  0  0
  6  4  1  0  0  0  0
  8 11  1  0  0  0  0
  8 10  1  0  0  0  0
  9  8  1  0  0  0  0
 11 13  1  0  0  0  0
 12 11  1  0  0  0  0
 14  4  1  0  0  0  0
 14 11  1  0  0  0  0
M  END
$$$$
Title Card Required
 OpenBabel06272217483D

 14 13  0  0  0  0  0  0  0  0999 V2000
   -1.6487    0.4464    0.0642 C   0  0  0  0  0  0  0  0  0  0  0  0
   -1.2016    0.9167   -0.7342 H   0  0  0  0  0  0  0  0  0  0  0  0
   -0.7954    0.3176    0.6601 H   0  0  0  0  0  0  0  0  0  0  0  0
   -2.0617   -1.0096   -0.4978 C   0  0  0  0  0  0  0  0  0  0  0  0
   -1.5693   -1.6708    0.0991 H   0  0  0  0  0  0  0  0  0  0  0  0
   -1.8305   -1.2575   -1.5707 H   0  0  0  0  0  0  0  0  0  0  0  0
    2.6404    0.1735    0.0607 Br  0  0  0  0  0 15  0  0  0  0  0  0
   -2.9924    1.0636    0.2429 C   0  0  0  0  0  0  0  0  0  0  0  0
   -3.4471    1.4027   -0.7733 H   0  0  0  0  0  0  0  0  0  0  0  0
   -3.1109    1.8312    1.0146 H   0  0  0  0  0  0  0  0  0  0  0  0
   -4.0422   -0.2405    0.4983 C   0  0  0  0  0  0  0  0  0  0  0  0
   -5.1640   -0.3280    0.2755 H   0  0  0  0  0  0  0  0  0  0  0  0
   -3.8188   -0.6657    1.5012 H   0  0  0  0  0  0  0  0  0  0  0  0
   -3.6472   -1.0855   -0.5600 O   0  0  0  0  0  0  0  0  0  0  0  0
  1  8  1  0  0  0  0
  1  3  1  0  0  0  0
  2  1  1  0  0  0  0
  4  1  1  0  0  0  0
  4  5  1  0  0  0  0
  6  4  1  0  0  0  0
  8 11  1  0  0  0  0
  8 10  1  0  0  0  0
  9  8  1  0  0  0  0
 11 13  1  0  0  0  0
 12 11  1  0  0  0  0
 14  4  1  0  0  0  0
 14 11  1  0  0  0  0
M  END
$$$$
Title Card Required
 OpenBabel06272217483D

 14 13  0  0  0  0  0  0  0  0999 V2000
   -1.6583    0.4424    0.0655 C   0  0  0  0  0  0  0  0  0  0  0  0
   -1.2518    0.9444   -0.7122 H   0  0  0  0  0  0  0  0  0  0  0  0
   -0.8197    0.3635    0.6623 H   0  0  0  0  0  0  0  0  0  0  0  0
   -2.0449   -1.0209   -0.4941 C   0  0  0  0  0  0  0  0  0  0  0  0
   -1.5054   -1.6789    0.0872 H   0  0  0  0  0  0  0  0  0  0  0  0
   -1.8168   -1.2105   -1.5813 H   0  0  0  0  0  0  0  0  0  0  0  0
    2.6441    0.1741    0.0609 Br  0  0  0  0  0 15  0  0  0  0  0  0
   -2.9943    1.0561    0.2473 C   0  0  0  0  0  0  0  0  0  0  0  0
   -3.4610    1.4741   -0.7270 H   0  0  0  0  0  0  0  0  0  0  0  0
   -3.0884    1.8471    0.9956 H   0  0  0  0  0  0  0  0  0  0  0  0
   -4.0376   -0.2374    0.4838 C   0  0  0  0  0  0  0  0  0  0  0  0
   -5.0711   -0.3057    0.2712 H   0  0  0  0  0  0  0  0  0  0  0  0
   -3.7794   -0.6143    1.5608 H   0  0  0  0  0  0  0  0  0  0  0  0
   -3.6820   -1.0909   -0.5626 O   0  0  0  0  0  0  0  0  0  0  0  0
  1  8  1  0  0  0  0
  1  3  1  0  0  0  0
  2  1  1  0  0  0  0
  4  1  1  0  0  0  0
  4  5  1  0  0  0  0
  6  4  1  0  0  0  0
  8 11  1  0  0  0  0
  8 10  1  0  0  0  0
  9  8  1  0  0  0  0
 11 13  1  0  0  0  0
 12 11  1  0  0  0  0
 14  4  1  0  0  0  0
 14 11  1  0  0  0  0
M  END
$$$$
Title Card Required
 OpenBabel06272217483D

 14 13  0  0  0  0  0  0  0  0999 V2000
   -1.6719    0.4342    0.0643 C   0  0  0  0  0  0  0  0  0  0  0  0
   -1.2823    0.9959   -0.7308 H   0  0  0  0  0  0  0  0  0  0  0  0
   -0.8271    0.4113    0.7029 H   0  0  0  0  0  0  0  0  0  0  0  0
   -2.0309   -1.0294   -0.4940 C   0  0  0  0  0  0  0  0  0  0  0  0
   -1.4344   -1.7216    0.0985 H   0  0  0  0  0  0  0  0  0  0  0  0
   -1.8012   -1.1566   -1.5786 H   0  0  0  0  0  0  0  0  0  0  0  0
    2.6480    0.1748    0.0612 Br  0  0  0  0  0 15  0  0  0  0  0  0
   -3.0015    1.0480    0.2518 C   0  0  0  0  0  0  0  0  0  0  0  0
   -3.4579    1.5436   -0.6629 H   0  0  0  0  0  0  0  0  0  0  0  0
   -3.0647    1.8641    0.9802 H   0  0  0  0  0  0  0  0  0  0  0  0
   -4.0290   -0.2338    0.4696 C   0  0  0  0  0  0  0  0  0  0  0  0
   -5.0031   -0.2594    0.2763 H   0  0  0  0  0  0  0  0  0  0  0  0
   -3.7459   -0.5594    1.6020 H   0  0  0  0  0  0  0  0  0  0  0  0
   -3.7134   -1.0970   -0.5640 O   0  0  0  0  0  0  0  0  0  0  0  0
  1  8  1  0  0  0  0
  1  3  1  0  0  0  0
  2  1  1  0  0  0  0
  4  1  1  0  0  0  0
  4  5  1  0  0  0  0
  6  4  1  0  0  0  0
  8 11  1  0  0  0  0
  8 10  1  0  0  0  0
  9  8  1  0  0  0  0
 11 13  1  0  0  0  0
 12 11  1  0  0  0  0
 14  4  1  0  0  0  0
 14 11  1  0  0  0  0
M  END
$$$$
Title Card Required
 OpenBabel06272217483D

 14 13  0  0  0  0  0  0  0  0999 V2000
   -1.6876    0.4229    0.0600 C   0  0  0  0  0  0  0  0  0  0  0  0
   -1.2969    1.0575   -0.7752 H   0  0  0  0  0  0  0  0  0  0  0  0
   -0.8281    0.4590    0.7714 H   0  0  0  0  0  0  0  0  0  0  0  0
   -2.0190   -1.0359   -0.4962 C   0  0  0  0  0  0  0  0  0  0  0  0
   -1.3748   -1.7793    0.1153 H   0  0  0  0  0  0  0  0  0  0  0  0
   -1.7849   -1.1012   -1.5653 H   0  0  0  0  0  0  0  0  0  0  0  0
    2.6518    0.1754    0.0614 Br  0  0  0  0  0 15  0  0  0  0  0  0
   -3.0142    1.0399    0.2569 C   0  0  0  0  0  0  0  0  0  0  0  0
   -3.4392    1.6063   -0.5927 H   0  0  0  0  0  0  0  0  0  0  0  0
   -3.0412    1.8775    0.9734 H   0  0  0  0  0  0  0  0  0  0  0  0
   -4.0130   -0.2292    0.4582 C   0  0  0  0  0  0  0  0  0  0  0  0
   -5.0055   -0.1880    0.2865 H   0  0  0  0  0  0  0  0  0  0  0  0
   -3.7237   -0.5046    1.6108 H   0  0  0  0  0  0  0  0  0  0  0  0
   -3.7396   -1.1038   -0.5642 O   0  0  0  0  0  0  0  0  0  0  0  0
  1  8  1  0  0  0  0
  1  3  1  0  0  0  0
  2  1  1  0  0  0  0
  4  1  1  0  0  0  0
  4  5  1  0  0  0  0
  6  4  1  0  0  0  0
  8 11  1  0  0  0  0
  8 10  1  0  0  0  0
  9  8  1  0  0  0  0
 11 13  1  0  0  0  0
 12 11  1  0  0  0  0
 14  4  1  0  0  0  0
 14 11  1  0  0  0  0
M  END
$$$$
Title Card Required
 OpenBabel06272217483D

 14 13  0  0  0  0  0  0  0  0999 V2000
   -1.7022    0.4107    0.0524 C   0  0  0  0  0  0  0  0  0  0  0  0
   -1.3053    1.1070   -0.8173 H   0  0  0  0  0  0  0  0  0  0  0  0
   -0.8433    0.5039    0.8446 H   0  0  0  0  0  0  0  0  0  0  0  0
   -2.0082   -1.0415   -0.4986 C   0  0  0  0  0  0  0  0  0  0  0  0
   -1.3436   -1.8311    0.1203 H   0  0  0  0  0  0  0  0  0  0  0  0
   -1.7682   -1.0498   -1.5498 H   0  0  0  0  0  0  0  0  0  0  0  0
    2.6556    0.1761    0.0617 Br  0  0  0  0  0 15  0  0  0  0  0  0
   -3.0316    1.0324    0.2629 C   0  0  0  0  0  0  0  0  0  0  0  0
   -3.4113    1.6621   -0.5318 H   0  0  0  0  0  0  0  0  0  0  0  0
   -3.0188    1.8817    0.9790 H   0  0  0  0  0  0  0  0  0  0  0  0
   -3.9915   -0.2230    0.4501 C   0  0  0  0  0  0  0  0  0  0  0  0
   -5.0685   -0.0929    0.3038 H   0  0  0  0  0  0  0  0  0  0  0  0
   -3.7148   -0.4560    1.5845 H   0  0  0  0  0  0  0  0  0  0  0  0
   -3.7599   -1.1115   -0.5634 O   0  0  0  0  0  0  0  0  0  0  0  0
  1  8  1  0  0  0  0
  1  3  1  0  0  0  0
  2  1  1  0  0  0  0
  4  1  1  0  0  0  0
  4  5  1  0  0  0  0
  6  4  1  0  0  0  0
  8 11  1  0  0  0  0
  8 10  1  0  0  0  0
  9  8  1  0  0  0  0
 11 13  1  0  0  0  0
 12 11  1  0  0  0  0
 14  4  1  0  0  0  0
 14 11  1  0  0  0  0
M  END
$$$$
Title Card Required
 OpenBabel06272217483D

 14 13  0  0  0  0  0  0  0  0999 V2000
   -1.7144    0.3988    0.0414 C   0  0  0  0  0  0  0  0  0  0  0  0
   -1.3137    1.1291   -0.8393 H   0  0  0  0  0  0  0  0  0  0  0  0
   -0.8887    0.5428    0.9047 H   0  0  0  0  0  0  0  0  0  0  0  0
   -1.9974   -1.0470   -0.4999 C   0  0  0  0  0  0  0  0  0  0  0  0
   -1.3487   -1.8660    0.1039 H   0  0  0  0  0  0  0  0  0  0  0  0
   -1.7498   -1.0046   -1.5413 H   0  0  0  0  0  0  0  0  0  0  0  0
    2.6596    0.1768    0.0620 Br  0  0  0  0  0 15  0  0  0  0  0  0
   -3.0533    1.0252    0.2707 C   0  0  0  0  0  0  0  0  0  0  0  0
   -3.3801    1.7153   -0.4910 H   0  0  0  0  0  0  0  0  0  0  0  0
   -2.9978    1.8704    1.0006 H   0  0  0  0  0  0  0  0  0  0  0  0
   -3.9688   -0.2138    0.4445 C   0  0  0  0  0  0  0  0  0  0  0  0
   -5.1423    0.0221    0.3348 H   0  0  0  0  0  0  0  0  0  0  0  0
   -3.7180   -0.4185    1.5268 H   0  0  0  0  0  0  0  0  0  0  0  0
   -3.7751   -1.1201   -0.5612 O   0  0  0  0  0  0  0  0  0  0  0  0
  1  8  1  0  0  0  0
  1  3  1  0  0  0  0
  2  1  1  0  0  0  0
  4  1  1  0  0  0  0
  4  5  1  0  0  0  0
  6  4  1  0  0  0  0
  8 11  1  0  0  0  0
  8 10  1  0  0  0  0
  9  8  1  0  0  0  0
 11 13  1  0  0  0  0
 12 11  1  0  0  0  0
 14  4  1  0  0  0  0
 14 11  1  0  0  0  0
M  END
$$$$
Title Card Required
 OpenBabel06272217483D

 14 13  0  0  0  0  0  0  0  0999 V2000
   -1.7233    0.3889    0.0277 C   0  0  0  0  0  0  0  0  0  0  0  0
   -1.3239    1.1127   -0.8306 H   0  0  0  0  0  0  0  0  0  0  0  0
   -0.9710    0.5688    0.9360 H   0  0  0  0  0  0  0  0  0  0  0  0
   -1.9869   -1.0524   -0.4997 C   0  0  0  0  0  0  0  0  0  0  0  0
   -1.3942   -1.8774    0.0632 H   0  0  0  0  0  0  0  0  0  0  0  0
   -1.7304   -0.9705   -1.5467 H   0  0  0  0  0  0  0  0  0  0  0  0
    2.6637    0.1775    0.0623 Br  0  0  0  0  0 15  0  0  0  0  0  0
   -3.0779    1.0192    0.2798 C   0  0  0  0  0  0  0  0  0  0  0  0
   -3.3510    1.7635   -0.4776 H   0  0  0  0  0  0  0  0  0  0  0  0
   -2.9806    1.8361    1.0411 H   0  0  0  0  0  0  0  0  0  0  0  0
   -3.9502   -0.2000    0.4400 C   0  0  0  0  0  0  0  0  0  0  0  0
   -5.1791    0.1420    0.3803 H   0  0  0  0  0  0  0  0  0  0  0  0
   -3.7300   -0.4029    1.4561 H   0  0  0  0  0  0  0  0  0  0  0  0
   -3.7845   -1.1295   -0.5575 O   0  0  0  0  0  0  0  0  0  0  0  0
  1  8  1  0  0  0  0
  1  3  1  0  0  0  0
  2  1  1  0  0  0  0
  4  1  1  0  0  0  0
  4  5  1  0  0  0  0
  6  4  1  0  0  0  0
  8 11  1  0  0  0  0
  8 10  1  0  0  0  0
  9  8  1  0  0  0  0
 11 13  1  0  0  0  0
 12 11  1  0  0  0  0
 14  4  1  0  0  0  0
 14 11  1  0  0  0  0
M  END
$$$$
Title Card Required
 OpenBabel06272217483D

 14 13  0  0  0  0  0  0  0  0999 V2000
   -1.7289    0.3821    0.0134 C   0  0  0  0  0  0  0  0  0  0  0  0
   -1.3327    1.0605   -0.7948 H   0  0  0  0  0  0  0  0  0  0  0  0
   -1.0775    0.5756    0.9335 H   0  0  0  0  0  0  0  0  0  0  0  0
   -1.9780   -1.0564   -0.4990 C   0  0  0  0  0  0  0  0  0  0  0  0
   -1.4684   -1.8717    0.0091 H   0  0  0  0  0  0  0  0  0  0  0  0
   -1.7137   -0.9532   -1.5614 H   0  0  0  0  0  0  0  0  0  0  0  0
    2.6677    0.1782    0.0626 Br  0  0  0  0  0 15  0  0  0  0  0  0
   -3.1020    1.0162    0.2885 C   0  0  0  0  0  0  0  0  0  0  0  0
   -3.3282    1.7967   -0.4855 H   0  0  0  0  0  0  0  0  0  0  0  0
   -2.9717    1.7785    1.0961 H   0  0  0  0  0  0  0  0  0  0  0  0
   -3.9403   -0.1818    0.4344 C   0  0  0  0  0  0  0  0  0  0  0  0
   -5.1589    0.2438    0.4324 H   0  0  0  0  0  0  0  0  0  0  0  0
   -3.7424   -0.4199    1.4132 H   0  0  0  0  0  0  0  0  0  0  0  0
   -3.7876   -1.1386   -0.5524 O   0  0  0  0  0  0  0  0  0  0  0  0
  1  8  1  0  0  0  0
  1  3  1  0  0  0  0
  2  1  1  0  0  0  0
  4  5  1  0  0  0  0
  4  1  1  0  0  0  0
  6  4  1  0  0  0  0
  8 11  1  0  0  0  0
  8 10  1  0  0  0  0
  9  8  1  0  0  0  0
 11 13  1  0  0  0  0
 12 11  1  0  0  0  0
 14  4  1  0  0  0  0
 14 11  1  0  0  0  0
M  END
$$$$
Title Card Required
 OpenBabel06272217483D

 14 13  0  0  0  0  0  0  0  0999 V2000
   -1.7333    0.3774    0.0003 C   0  0  0  0  0  0  0  0  0  0  0  0
   -1.3328    0.9924   -0.7519 H   0  0  0  0  0  0  0  0  0  0  0  0
   -1.1855    0.5649    0.9114 H   0  0  0  0  0  0  0  0  0  0  0  0
   -1.9724   -1.0572   -0.5004 C   0  0  0  0  0  0  0  0  0  0  0  0
   -1.5480   -1.8730   -0.0379 H   0  0  0  0  0  0  0  0  0  0  0  0
   -1.7031   -0.9535   -1.5748 H   0  0  0  0  0  0  0  0  0  0  0  0
    2.6715    0.1789    0.0629 Br  0  0  0  0  0 15  0  0  0  0  0  0
   -3.1228    1.0169    0.2952 C   0  0  0  0  0  0  0  0  0  0  0  0
   -3.3134    1.8084   -0.5001 H   0  0  0  0  0  0  0  0  0  0  0  0
   -2.9728    1.7043    1.1581 H   0  0  0  0  0  0  0  0  0  0  0  0
   -3.9396   -0.1610    0.4267 C   0  0  0  0  0  0  0  0  0  0  0  0
   -5.0908    0.3163    0.4822 H   0  0  0  0  0  0  0  0  0  0  0  0
   -3.7500   -0.4680    1.4175 H   0  0  0  0  0  0  0  0  0  0  0  0
   -3.7855   -1.1466   -0.5463 O   0  0  0  0  0  0  0  0  0  0  0  0
  1  8  1  0  0  0  0
  1  3  1  0  0  0  0
  2  1  1  0  0  0  0
  4  5  1  0  0  0  0
  4  1  1  0  0  0  0
  6  4  1  0  0  0  0
  8 11  1  0  0  0  0
  8 10  1  0  0  0  0
  9  8  1  0  0  0  0
 11 12  1  0  0  0  0
 11 13  1  0  0  0  0
 14  4  1  0  0  0  0
 14 11  1  0  0  0  0
M  END
$$$$
Title Card Required
 OpenBabel06272217483D

 14 13  0  0  0  0  0  0  0  0999 V2000
   -1.7394    0.3723   -0.0112 C   0  0  0  0  0  0  0  0  0  0  0  0
   -1.3119    0.9324   -0.7285 H   0  0  0  0  0  0  0  0  0  0  0  0
   -1.2779    0.5413    0.8943 H   0  0  0  0  0  0  0  0  0  0  0  0
   -1.9712   -1.0530   -0.5056 C   0  0  0  0  0  0  0  0  0  0  0  0
   -1.6179   -1.9062   -0.0621 H   0  0  0  0  0  0  0  0  0  0  0  0
   -1.6994   -0.9700   -1.5814 H   0  0  0  0  0  0  0  0  0  0  0  0
    2.6751    0.1796    0.0632 Br  0  0  0  0  0 15  0  0  0  0  0  0
   -3.1396    1.0217    0.2997 C   0  0  0  0  0  0  0  0  0  0  0  0
   -3.3070    1.7993   -0.5115 H   0  0  0  0  0  0  0  0  0  0  0  0
   -2.9843    1.6179    1.2233 H   0  0  0  0  0  0  0  0  0  0  0  0
   -3.9470   -0.1391    0.4187 C   0  0  0  0  0  0  0  0  0  0  0  0
   -4.9900    0.3599    0.5255 H   0  0  0  0  0  0  0  0  0  0  0  0
   -3.7551   -0.5360    1.4493 H   0  0  0  0  0  0  0  0  0  0  0  0
   -3.7790   -1.1532   -0.5391 O   0  0  0  0  0  0  0  0  0  0  0  0
  1  8  1  0  0  0  0
  1  3  1  0  0  0  0
  2  1  1  0  0  0  0
  4  5  1  0  0  0  0
  4  1  1  0  0  0  0
  6  4  1  0  0  0  0
  8 11  1  0  0  0  0
  8 10  1  0  0  0  0
  9  8  1  0  0  0  0
 11 12  1  0  0  0  0
 11 13  1  0  0  0  0
 14  4  1  0  0  0  0
 14 11  1  0  0  0  0
M  END
$$$$
Title Card Required
 OpenBabel06272217483D

 14 13  0  0  0  0  0  0  0  0999 V2000
   -1.7496    0.3649   -0.0210 C   0  0  0  0  0  0  0  0  0  0  0  0
   -1.2583    0.8996   -0.7446 H   0  0  0  0  0  0  0  0  0  0  0  0
   -1.3383    0.5094    0.9074 H   0  0  0  0  0  0  0  0  0  0  0  0
   -1.9748   -1.0441   -0.5148 C   0  0  0  0  0  0  0  0  0  0  0  0
   -1.6759   -1.9726   -0.0610 H   0  0  0  0  0  0  0  0  0  0  0  0
   -1.7025   -1.0010   -1.5811 H   0  0  0  0  0  0  0  0  0  0  0  0
    2.6788    0.1802    0.0635 Br  0  0  0  0  0 15  0  0  0  0  0  0
   -3.1512    1.0302    0.3019 C   0  0  0  0  0  0  0  0  0  0  0  0
   -3.3108    1.7738   -0.5148 H   0  0  0  0  0  0  0  0  0  0  0  0
   -3.0057    1.5257    1.2861 H   0  0  0  0  0  0  0  0  0  0  0  0
   -3.9603   -0.1191    0.4129 C   0  0  0  0  0  0  0  0  0  0  0  0
   -4.8837    0.3781    0.5587 H   0  0  0  0  0  0  0  0  0  0  0  0
   -3.7614   -0.6062    1.4780 H   0  0  0  0  0  0  0  0  0  0  0  0
   -3.7683   -1.1582   -0.5311 O   0  0  0  0  0  0  0  0  0  0  0  0
  1  8  1  0  0  0  0
  1  3  1  0  0  0  0
  2  1  1  0  0  0  0
  4  5  1  0  0  0  0
  4  1  1  0  0  0  0
  6  4  1  0  0  0  0
  8 11  1  0  0  0  0
  8 10  1  0  0  0  0
  9  8  1  0  0  0  0
 11 12  1  0  0  0  0
 11 13  1  0  0  0  0
 14  4  1  0  0  0  0
 14 11  1  0  0  0  0
M  END
$$$$
Title Card Required
 OpenBabel06272217483D

 14 13  0  0  0  0  0  0  0  0999 V2000
   -1.7640    0.3557   -0.0302 C   0  0  0  0  0  0  0  0  0  0  0  0
   -1.1743    0.8894   -0.7898 H   0  0  0  0  0  0  0  0  0  0  0  0
   -1.3634    0.4682    0.9562 H   0  0  0  0  0  0  0  0  0  0  0  0
   -1.9838   -1.0333   -0.5269 C   0  0  0  0  0  0  0  0  0  0  0  0
   -1.7316   -2.0455   -0.0468 H   0  0  0  0  0  0  0  0  0  0  0  0
   -1.7113   -1.0456   -1.5790 H   0  0  0  0  0  0  0  0  0  0  0  0
    2.6826    0.1809    0.0638 Br  0  0  0  0  0 15  0  0  0  0  0  0
   -3.1568    1.0419    0.3023 C   0  0  0  0  0  0  0  0  0  0  0  0
   -3.3280    1.7407   -0.5105 H   0  0  0  0  0  0  0  0  0  0  0  0
   -3.0373    1.4324    1.3417 H   0  0  0  0  0  0  0  0  0  0  0  0
   -3.9760   -0.1042    0.4106 C   0  0  0  0  0  0  0  0  0  0  0  0
   -4.8201    0.3861    0.5837 H   0  0  0  0  0  0  0  0  0  0  0  0
   -3.7718   -0.6638    1.4831 H   0  0  0  0  0  0  0  0  0  0  0  0
   -3.7535   -1.1610   -0.5221 O   0  0  0  0  0  0  0  0  0  0  0  0
  1  8  1  0  0  0  0
  1  3  1  0  0  0  0
  2  1  1  0  0  0  0
  4 14  1  0  0  0  0
  4  5  1  0  0  0  0
  4  1  1  0  0  0  0
  6  4  1  0  0  0  0
  8 11  1  0  0  0  0
  8 10  1  0  0  0  0
  9  8  1  0  0  0  0
 11 12  1  0  0  0  0
 11 13  1  0  0  0  0
 14 11  1  0  0  0  0
M  END
$$$$
Title Card Required
 OpenBabel06272217483D

 14 13  0  0  0  0  0  0  0  0999 V2000
   -1.7796    0.3471   -0.0391 C   0  0  0  0  0  0  0  0  0  0  0  0
   -1.0806    0.8814   -0.8294 H   0  0  0  0  0  0  0  0  0  0  0  0
   -1.3598    0.4121    1.0160 H   0  0  0  0  0  0  0  0  0  0  0  0
   -1.9995   -1.0245   -0.5404 C   0  0  0  0  0  0  0  0  0  0  0  0
   -1.7914   -2.0877   -0.0336 H   0  0  0  0  0  0  0  0  0  0  0  0
   -1.7248   -1.1036   -1.5831 H   0  0  0  0  0  0  0  0  0  0  0  0
    2.6866    0.1817    0.0641 Br  0  0  0  0  0 15  0  0  0  0  0  0
   -3.1548    1.0554    0.3021 C   0  0  0  0  0  0  0  0  0  0  0  0
   -3.3637    1.7150   -0.5051 H   0  0  0  0  0  0  0  0  0  0  0  0
   -3.0785    1.3464    1.3819 H   0  0  0  0  0  0  0  0  0  0  0  0
   -3.9900   -0.0986    0.4125 C   0  0  0  0  0  0  0  0  0  0  0  0
   -4.8605    0.4055    0.6051 H   0  0  0  0  0  0  0  0  0  0  0  0
   -3.7879   -0.6950    1.4540 H   0  0  0  0  0  0  0  0  0  0  0  0
   -3.7340   -1.1611   -0.5123 O   0  0  0  0  0  0  0  0  0  0  0  0
  1  8  1  0  0  0  0
  1  3  1  0  0  0  0
  2  1  1  0  0  0  0
  4 14  1  0  0  0  0
  4  1  1  0  0  0  0
  4  5  1  0  0  0  0
  6  4  1  0  0  0  0
  8 11  1  0  0  0  0
  8 10  1  0  0  0  0
  9  8  1  0  0  0  0
 11 12  1  0  0  0  0
 11 13  1  0  0  0  0
 14 11  1  0  0  0  0
M  END
$$$$
Title Card Required
 OpenBabel06272217483D

 14 13  0  0  0  0  0  0  0  0999 V2000
   -1.7913    0.3422   -0.0457 C   0  0  0  0  0  0  0  0  0  0  0  0
   -1.0120    0.8605   -0.8299 H   0  0  0  0  0  0  0  0  0  0  0  0
   -1.3414    0.3459    1.0448 H   0  0  0  0  0  0  0  0  0  0  0  0
   -2.0214   -1.0214   -0.5530 C   0  0  0  0  0  0  0  0  0  0  0  0
   -1.8471   -2.0742   -0.0297 H   0  0  0  0  0  0  0  0  0  0  0  0
   -1.7406   -1.1652   -1.5967 H   0  0  0  0  0  0  0  0  0  0  0  0
    2.6905    0.1824    0.0644 Br  0  0  0  0  0 15  0  0  0  0  0  0
   -3.1461    1.0669    0.3025 C   0  0  0  0  0  0  0  0  0  0  0  0
   -3.4150    1.7137   -0.5057 H   0  0  0  0  0  0  0  0  0  0  0  0
   -3.1217    1.2881    1.3971 H   0  0  0  0  0  0  0  0  0  0  0  0
   -4.0015   -0.1026    0.4182 C   0  0  0  0  0  0  0  0  0  0  0  0
   -4.9819    0.4225    0.6146 H   0  0  0  0  0  0  0  0  0  0  0  0
   -3.8084   -0.6907    1.3984 H   0  0  0  0  0  0  0  0  0  0  0  0
   -3.7121   -1.1581   -0.5031 O   0  0  0  0  0  0  0  0  0  0  0  0
  1  8  1  0  0  0  0
  1  3  1  0  0  0  0
  2  1  1  0  0  0  0
  4 14  1  0  0  0  0
  4  1  1  0  0  0  0
  4  5  1  0  0  0  0
  6  4  1  0  0  0  0
  8 11  1  0  0  0  0
  8 10  1  0  0  0  0
  9  8  1  0  0  0  0
 11 12  1  0  0  0  0
 11 13  1  0  0  0  0
 14 11  1  0  0  0  0
M  END
$$$$
Title Card Required
 OpenBabel06272217483D

 14 13  0  0  0  0  0  0  0  0999 V2000
   -1.7972    0.3410   -0.0493 C   0  0  0  0  0  0  0  0  0  0  0  0
   -0.9797    0.8275   -0.7906 H   0  0  0  0  0  0  0  0  0  0  0  0
   -1.3205    0.2784    1.0306 H   0  0  0  0  0  0  0  0  0  0  0  0
   -2.0479   -1.0238   -0.5644 C   0  0  0  0  0  0  0  0  0  0  0  0
   -1.8905   -2.0164   -0.0321 H   0  0  0  0  0  0  0  0  0  0  0  0
   -1.7583   -1.2214   -1.6134 H   0  0  0  0  0  0  0  0  0  0  0  0
    2.6941    0.1831    0.0646 Br  0  0  0  0  0 15  0  0  0  0  0  0
   -3.1337    1.0749    0.3033 C   0  0  0  0  0  0  0  0  0  0  0  0
   -3.4724    1.7326   -0.5073 H   0  0  0  0  0  0  0  0  0  0  0  0
   -3.1590    1.2639    1.3925 H   0  0  0  0  0  0  0  0  0  0  0  0
   -4.0138   -0.1112    0.4261 C   0  0  0  0  0  0  0  0  0  0  0  0
   -5.1058    0.4126    0.6034 H   0  0  0  0  0  0  0  0  0  0  0  0
   -3.8299   -0.6617    1.3401 H   0  0  0  0  0  0  0  0  0  0  0  0
   -3.6898   -1.1529   -0.4955 O   0  0  0  0  0  0  0  0  0  0  0  0
  1  8  1  0  0  0  0
  1  3  1  0  0  0  0
  2  1  1  0  0  0  0
  4 14  1  0  0  0  0
  4  1  1  0  0  0  0
  4  5  1  0  0  0  0
  6  4  1  0  0  0  0
  8 11  1  0  0  0  0
  8 10  1  0  0  0  0
  9  8  1  0  0  0  0
 11 12  1  0  0  0  0
 11 13  1  0  0  0  0
 14 11  1  0  0  0  0
M  END
$$$$
Title Card Required
 OpenBabel06272217483D

 14 13  0  0  0  0  0  0  0  0999 V2000
   -1.7982    0.3420   -0.0502 C   0  0  0  0  0  0  0  0  0  0  0  0
   -0.9769    0.7891   -0.7246 H   0  0  0  0  0  0  0  0  0  0  0  0
   -1.3016    0.2142    0.9833 H   0  0  0  0  0  0  0  0  0  0  0  0
   -2.0784   -1.0296   -0.5755 C   0  0  0  0  0  0  0  0  0  0  0  0
   -1.9180   -1.9387   -0.0322 H   0  0  0  0  0  0  0  0  0  0  0  0
   -1.7792   -1.2685   -1.6266 H   0  0  0  0  0  0  0  0  0  0  0  0
    2.6974    0.1838    0.0649 Br  0  0  0  0  0 15  0  0  0  0  0  0
   -3.1205    1.0799    0.3035 C   0  0  0  0  0  0  0  0  0  0  0  0
   -3.5271    1.7591   -0.4995 H   0  0  0  0  0  0  0  0  0  0  0  0
   -3.1875    1.2705    1.3781 H   0  0  0  0  0  0  0  0  0  0  0  0
   -4.0285   -0.1207    0.4338 C   0  0  0  0  0  0  0  0  0  0  0  0
   -5.1970    0.3720    0.5729 H   0  0  0  0  0  0  0  0  0  0  0  0
   -3.8492   -0.6273    1.3060 H   0  0  0  0  0  0  0  0  0  0  0  0
   -3.6675   -1.1463   -0.4894 O   0  0  0  0  0  0  0  0  0  0  0  0
  1  8  1  0  0  0  0
  1  3  1  0  0  0  0
  2  1  1  0  0  0  0
  4 14  1  0  0  0  0
  4  1  1  0  0  0  0
  4  5  1  0  0  0  0
  6  4  1  0  0  0  0
  8 11  1  0  0  0  0
  8 10  1  0  0  0  0
  9  8  1  0  0  0  0
 11 12  1  0  0  0  0
 11 13  1  0  0  0  0
 14 11  1  0  0  0  0
M  END
$$$$
Title Card Required
 OpenBabel06272217483D

 14 13  0  0  0  0  0  0  0  0999 V2000
   -1.7959    0.3438   -0.0492 C   0  0  0  0  0  0  0  0  0  0  0  0
   -0.9911    0.7531   -0.6471 H   0  0  0  0  0  0  0  0  0  0  0  0
   -1.2851    0.1551    0.9177 H   0  0  0  0  0  0  0  0  0  0  0  0
   -2.1123   -1.0363   -0.5875 C   0  0  0  0  0  0  0  0  0  0  0  0
   -1.9267   -1.8674   -0.0181 H   0  0  0  0  0  0  0  0  0  0  0  0
   -1.8040   -1.3057   -1.6331 H   0  0  0  0  0  0  0  0  0  0  0  0
    2.7005    0.1844    0.0651 Br  0  0  0  0  0 15  0  0  0  0  0  0
   -3.1080    1.0827    0.3023 C   0  0  0  0  0  0  0  0  0  0  0  0
   -3.5721    1.7836   -0.4770 H   0  0  0  0  0  0  0  0  0  0  0  0
   -3.2063    1.3035    1.3614 H   0  0  0  0  0  0  0  0  0  0  0  0
   -4.0456   -0.1290    0.4388 C   0  0  0  0  0  0  0  0  0  0  0  0
   -5.2485    0.3061    0.5275 H   0  0  0  0  0  0  0  0  0  0  0  0
   -3.8636   -0.6031    1.3177 H   0  0  0  0  0  0  0  0  0  0  0  0
   -3.6455   -1.1388   -0.4847 O   0  0  0  0  0  0  0  0  0  0  0  0
  1  8  1  0  0  0  0
  1  3  1  0  0  0  0
  2  1  1  0  0  0  0
  4 14  1  0  0  0  0
  4  1  1  0  0  0  0
  4  5  1  0  0  0  0
  6  4  1  0  0  0  0
  8 11  1  0  0  0  0
  8 10  1  0  0  0  0
  9  8  1  0  0  0  0
 11 12  1  0  0  0  0
 11 13  1  0  0  0  0
 14 11  1  0  0  0  0
M  END
$$$$
Title Card Required
 OpenBabel06272217483D

 14 13  0  0  0  0  0  0  0  0999 V2000
   -1.7926    0.3450   -0.0466 C   0  0  0  0  0  0  0  0  0  0  0  0
   -1.0039    0.7302   -0.5779 H   0  0  0  0  0  0  0  0  0  0  0  0
   -1.2690    0.1020    0.8526 H   0  0  0  0  0  0  0  0  0  0  0  0
   -2.1486   -1.0418   -0.6007 C   0  0  0  0  0  0  0  0  0  0  0  0
   -1.9142   -1.8220    0.0187 H   0  0  0  0  0  0  0  0  0  0  0  0
   -1.8321   -1.3328   -1.6328 H   0  0  0  0  0  0  0  0  0  0  0  0
    2.7034    0.1850    0.0653 Br  0  0  0  0  0 15  0  0  0  0  0  0
   -3.0974    1.0839    0.2999 C   0  0  0  0  0  0  0  0  0  0  0  0
   -3.6025    1.8012   -0.4411 H   0  0  0  0  0  0  0  0  0  0  0  0
   -3.2149    1.3566    1.3466 H   0  0  0  0  0  0  0  0  0  0  0  0
   -4.0641   -0.1357    0.4406 C   0  0  0  0  0  0  0  0  0  0  0  0
   -5.2612    0.2228    0.4725 H   0  0  0  0  0  0  0  0  0  0  0  0
   -3.8736   -0.5921    1.3728 H   0  0  0  0  0  0  0  0  0  0  0  0
   -3.6245   -1.1307   -0.4812 O   0  0  0  0  0  0  0  0  0  0  0  0
  1  8  1  0  0  0  0
  1  3  1  0  0  0  0
  2  1  1  0  0  0  0
  4 14  1  0  0  0  0
  4  1  1  0  0  0  0
  4  5  1  0  0  0  0
  6  4  1  0  0  0  0
  8 11  1  0  0  0  0
  8 10  1  0  0  0  0
  9  8  1  0  0  0  0
 11 12  1  0  0  0  0
 11 13  1  0  0  0  0
 14 11  1  0  0  0  0
M  END
$$$$
Title Card Required
 OpenBabel06272217483D

 14 13  0  0  0  0  0  0  0  0999 V2000
   -1.7907    0.3450   -0.0431 C   0  0  0  0  0  0  0  0  0  0  0  0
   -0.9983    0.7287   -0.5321 H   0  0  0  0  0  0  0  0  0  0  0  0
   -1.2500    0.0527    0.8042 H   0  0  0  0  0  0  0  0  0  0  0  0
   -2.1858   -1.0456   -0.6145 C   0  0  0  0  0  0  0  0  0  0  0  0
   -1.8835   -1.8008    0.0732 H   0  0  0  0  0  0  0  0  0  0  0  0
   -1.8624   -1.3517   -1.6281 H   0  0  0  0  0  0  0  0  0  0  0  0
    2.7062    0.1855    0.0655 Br  0  0  0  0  0 15  0  0  0  0  0  0
   -3.0891    1.0839    0.2968 C   0  0  0  0  0  0  0  0  0  0  0  0
   -3.6177    1.8112   -0.3972 H   0  0  0  0  0  0  0  0  0  0  0  0
   -3.2140    1.4225    1.3335 H   0  0  0  0  0  0  0  0  0  0  0  0
   -4.0826   -0.1415    0.4408 C   0  0  0  0  0  0  0  0  0  0  0  0
   -5.2419    0.1300    0.4119 H   0  0  0  0  0  0  0  0  0  0  0  0
   -3.8831   -0.5859    1.4474 H   0  0  0  0  0  0  0  0  0  0  0  0
   -3.6051   -1.1224   -0.4787 O   0  0  0  0  0  0  0  0  0  0  0  0
  1  8  1  0  0  0  0
  1  3  1  0  0  0  0
  2  1  1  0  0  0  0
  4 14  1  0  0  0  0
  4  1  1  0  0  0  0
  4  5  1  0  0  0  0
  6  4  1  0  0  0  0
  8 11  1  0  0  0  0
  8 10  1  0  0  0  0
  9  8  1  0  0  0  0
 11 13  1  0  0  0  0
 12 11  1  0  0  0  0
 14 11  1  0  0  0  0
M  END
$$$$
Title Card Required
 OpenBabel06272217483D

 14 13  0  0  0  0  0  0  0  0999 V2000
   -1.7909    0.3435   -0.0394 C   0  0  0  0  0  0  0  0  0  0  0  0
   -0.9693    0.7498   -0.5128 H   0  0  0  0  0  0  0  0  0  0  0  0
   -1.2266    0.0047    0.7794 H   0  0  0  0  0  0  0  0  0  0  0  0
   -2.2231   -1.0488   -0.6275 C   0  0  0  0  0  0  0  0  0  0  0  0
   -1.8415   -1.7899    0.1320 H   0  0  0  0  0  0  0  0  0  0  0  0
   -1.8942   -1.3649   -1.6225 H   0  0  0  0  0  0  0  0  0  0  0  0
    2.7088    0.1861    0.0657 Br  0  0  0  0  0 15  0  0  0  0  0  0
   -3.0831    1.0831    0.2939 C   0  0  0  0  0  0  0  0  0  0  0  0
   -3.6194    1.8156   -0.3514 H   0  0  0  0  0  0  0  0  0  0  0  0
   -3.2039    1.4957    1.3195 H   0  0  0  0  0  0  0  0  0  0  0  0
   -4.1001   -0.1475    0.4410 C   0  0  0  0  0  0  0  0  0  0  0  0
   -5.2009    0.0327    0.3477 H   0  0  0  0  0  0  0  0  0  0  0  0
   -3.8961   -0.5770    1.5200 H   0  0  0  0  0  0  0  0  0  0  0  0
   -3.5875   -1.1139   -0.4770 O   0  0  0  0  0  0  0  0  0  0  0  0
  1  8  1  0  0  0  0
  1  3  1  0  0  0  0
  2  1  1  0  0  0  0
  4 14  1  0  0  0  0
  4  1  1  0  0  0  0
  4  5  1  0  0  0  0
  6  4  1  0  0  0  0
  8 11  1  0  0  0  0
  8 10  1  0  0  0  0
  9  8  1  0  0  0  0
 11 13  1  0  0  0  0
 12 11  1  0  0  0  0
 14 11  1  0  0  0  0
M  END
$$$$
Title Card Required
 OpenBabel06272217483D

 14 13  0  0  0  0  0  0  0  0999 V2000
   -1.7926    0.3408   -0.0359 C   0  0  0  0  0  0  0  0  0  0  0  0
   -0.9252    0.7891   -0.5138 H   0  0  0  0  0  0  0  0  0  0  0  0
   -1.2001   -0.0434    0.7769 H   0  0  0  0  0  0  0  0  0  0  0  0
   -2.2604   -1.0521   -0.6389 C   0  0  0  0  0  0  0  0  0  0  0  0
   -1.7945   -1.7777    0.1831 H   0  0  0  0  0  0  0  0  0  0  0  0
   -1.9277   -1.3749   -1.6194 H   0  0  0  0  0  0  0  0  0  0  0  0
    2.7114    0.1866    0.0659 Br  0  0  0  0  0 15  0  0  0  0  0  0
   -3.0791    1.0816    0.2920 C   0  0  0  0  0  0  0  0  0  0  0  0
   -3.6099    1.8176   -0.3091 H   0  0  0  0  0  0  0  0  0  0  0  0
   -3.1842    1.5732    1.3012 H   0  0  0  0  0  0  0  0  0  0  0  0
   -4.1156   -0.1544    0.4421 C   0  0  0  0  0  0  0  0  0  0  0  0
   -5.1522   -0.0672    0.2784 H   0  0  0  0  0  0  0  0  0  0  0  0
   -3.9154   -0.5617    1.5792 H   0  0  0  0  0  0  0  0  0  0  0  0
   -3.5715   -1.1050   -0.4756 O   0  0  0  0  0  0  0  0  0  0  0  0
  1  8  1  0  0  0  0
  1  3  1  0  0  0  0
  2  1  1  0  0  0  0
  4 14  1  0  0  0  0
  4  1  1  0  0  0  0
  4  5  1  0  0  0  0
  6  4  1  0  0  0  0
  8 11  1  0  0  0  0
  8 10  1  0  0  0  0
  9  8  1  0  0  0  0
 11 13  1  0  0  0  0
 12 11  1  0  0  0  0
 14 11  1  0  0  0  0
M  END
$$$$
Title Card Required
 OpenBabel06272217483D

 14 13  0  0  0  0  0  0  0  0999 V2000
   -1.7940    0.3371   -0.0329 C   0  0  0  0  0  0  0  0  0  0  0  0
   -0.8799    0.8410   -0.5268 H   0  0  0  0  0  0  0  0  0  0  0  0
   -1.1746   -0.0898    0.7920 H   0  0  0  0  0  0  0  0  0  0  0  0
   -2.2977   -1.0561   -0.6479 C   0  0  0  0  0  0  0  0  0  0  0  0
   -1.7474   -1.7575    0.2169 H   0  0  0  0  0  0  0  0  0  0  0  0
   -1.9643   -1.3837   -1.6222 H   0  0  0  0  0  0  0  0  0  0  0  0
    2.7142    0.1872    0.0662 Br  0  0  0  0  0 15  0  0  0  0  0  0
   -3.0772    1.0791    0.2921 C   0  0  0  0  0  0  0  0  0  0  0  0
   -3.5905    1.8221   -0.2771 H   0  0  0  0  0  0  0  0  0  0  0  0
   -3.1520    1.6544    1.2745 H   0  0  0  0  0  0  0  0  0  0  0  0
   -4.1277   -0.1633    0.4453 C   0  0  0  0  0  0  0  0  0  0  0  0
   -5.1164   -0.1710    0.1975 H   0  0  0  0  0  0  0  0  0  0  0  0
   -3.9450   -0.5371    1.6173 H   0  0  0  0  0  0  0  0  0  0  0  0
   -3.5576   -1.0952   -0.4742 O   0  0  0  0  0  0  0  0  0  0  0  0
  1  8  1  0  0  0  0
  1  3  1  0  0  0  0
  2  1  1  0  0  0  0
  4 14  1  0  0  0  0
  4  1  1  0  0  0  0
  4  5  1  0  0  0  0
  6  4  1  0  0  0  0
  8 11  1  0  0  0  0
  8 10  1  0  0  0  0
  9  8  1  0  0  0  0
 11 13  1  0  0  0  0
 12 11  1  0  0  0  0
 14 11  1  0  0  0  0
M  END
$$$$
Title Card Required
 OpenBabel06272217483D

 14 13  0  0  0  0  0  0  0  0999 V2000
   -1.7926    0.3326   -0.0309 C   0  0  0  0  0  0  0  0  0  0  0  0
   -0.8540    0.8970   -0.5431 H   0  0  0  0  0  0  0  0  0  0  0  0
   -1.1600   -0.1259    0.8172 H   0  0  0  0  0  0  0  0  0  0  0  0
   -2.3323   -1.0610   -0.6537 C   0  0  0  0  0  0  0  0  0  0  0  0
   -1.7079   -1.7259    0.2191 H   0  0  0  0  0  0  0  0  0  0  0  0
   -2.0053   -1.3925   -1.6356 H   0  0  0  0  0  0  0  0  0  0  0  0
    2.7175    0.1879    0.0664 Br  0  0  0  0  0 15  0  0  0  0  0  0
   -3.0779    1.0753    0.2960 C   0  0  0  0  0  0  0  0  0  0  0  0
   -3.5620    1.8358   -0.2702 H   0  0  0  0  0  0  0  0  0  0  0  0
   -3.1023    1.7344    1.2346 H   0  0  0  0  0  0  0  0  0  0  0  0
   -4.1336   -0.1749    0.4522 C   0  0  0  0  0  0  0  0  0  0  0  0
   -5.1202   -0.2784    0.0969 H   0  0  0  0  0  0  0  0  0  0  0  0
   -3.9903   -0.5011    1.6209 H   0  0  0  0  0  0  0  0  0  0  0  0
   -3.5483   -1.0841   -0.4725 O   0  0  0  0  0  0  0  0  0  0  0  0
  1  8  1  0  0  0  0
  1  3  1  0  0  0  0
  2  1  1  0  0  0  0
  4 14  1  0  0  0  0
  4  1  1  0  0  0  0
  4  5  1  0  0  0  0
  6  4  1  0  0  0  0
  8 11  1  0  0  0  0
  8 10  1  0  0  0  0
  9  8  1  0  0  0  0
 11 13  1  0  0  0  0
 12 11  1  0  0  0  0
 14 11  1  0  0  0  0
M  END
$$$$
Title Card Required
 OpenBabel06272217483D

 14 13  0  0  0  0  0  0  0  0999 V2000
   -1.7856    0.3276   -0.0300 C   0  0  0  0  0  0  0  0  0  0  0  0
   -0.8743    0.9400   -0.5519 H   0  0  0  0  0  0  0  0  0  0  0  0
   -1.1710   -0.1338    0.8396 H   0  0  0  0  0  0  0  0  0  0  0  0
   -2.3539   -1.0665   -0.6551 C   0  0  0  0  0  0  0  0  0  0  0  0
   -1.6910   -1.6867    0.1722 H   0  0  0  0  0  0  0  0  0  0  0  0
   -2.0493   -1.3997   -1.6598 H   0  0  0  0  0  0  0  0  0  0  0  0
    2.7212    0.1887    0.0667 Br  0  0  0  0  0 15  0  0  0  0  0  0
   -3.0818    1.0706    0.3051 C   0  0  0  0  0  0  0  0  0  0  0  0
   -3.5253    1.8595   -0.3058 H   0  0  0  0  0  0  0  0  0  0  0  0
   -3.0350    1.7967    1.1828 H   0  0  0  0  0  0  0  0  0  0  0  0
   -4.1328   -0.1888    0.4629 C   0  0  0  0  0  0  0  0  0  0  0  0
   -5.1609   -0.3747   -0.0111 H   0  0  0  0  0  0  0  0  0  0  0  0
   -4.0525   -0.4583    1.5769 H   0  0  0  0  0  0  0  0  0  0  0  0
   -3.5495   -1.0726   -0.4696 O   0  0  0  0  0  0  0  0  0  0  0  0
  1  8  1  0  0  0  0
  1  3  1  0  0  0  0
  2  1  1  0  0  0  0
  4 14  1  0  0  0  0
  4  1  1  0  0  0  0
  4  5  1  0  0  0  0
  6  4  1  0  0  0  0
  8 11  1  0  0  0  0
  8 10  1  0  0  0  0
  9  8  1  0  0  0  0
 11 13  1  0  0  0  0
 12 11  1  0  0  0  0
 14 11  1  0  0  0  0
M  END
$$$$
Title Card Required
 OpenBabel06272217483D

 14 13  0  0  0  0  0  0  0  0999 V2000
   -1.7738    0.3234   -0.0304 C   0  0  0  0  0  0  0  0  0  0  0  0
   -0.9449    0.9555   -0.5477 H   0  0  0  0  0  0  0  0  0  0  0  0
   -1.2089   -0.1058    0.8498 H   0  0  0  0  0  0  0  0  0  0  0  0
   -2.3536   -1.0715   -0.6535 C   0  0  0  0  0  0  0  0  0  0  0  0
   -1.7046   -1.6549    0.0813 H   0  0  0  0  0  0  0  0  0  0  0  0
   -2.0913   -1.4002   -1.6854 H   0  0  0  0  0  0  0  0  0  0  0  0
    2.7248    0.1895    0.0670 Br  0  0  0  0  0 15  0  0  0  0  0  0
   -3.0884    1.0669    0.3170 C   0  0  0  0  0  0  0  0  0  0  0  0
   -3.4806    1.8746   -0.3754 H   0  0  0  0  0  0  0  0  0  0  0  0
   -2.9632    1.8254    1.1330 H   0  0  0  0  0  0  0  0  0  0  0  0
   -4.1299   -0.2018    0.4726 C   0  0  0  0  0  0  0  0  0  0  0  0
   -5.1949   -0.4307   -0.0865 H   0  0  0  0  0  0  0  0  0  0  0  0
   -4.1200   -0.4263    1.5085 H   0  0  0  0  0  0  0  0  0  0  0  0
   -3.5642   -1.0630   -0.4651 O   0  0  0  0  0  0  0  0  0  0  0  0
  1  8  1  0  0  0  0
  1  3  1  0  0  0  0
  2  1  1  0  0  0  0
  4 14  1  0  0  0  0
  4  1  1  0  0  0  0
  4  5  1  0  0  0  0
  6  4  1  0  0  0  0
  8 11  1  0  0  0  0
  8 10  1  0  0  0  0
  9  8  1  0  0  0  0
 11 13  1  0  0  0  0
 12 11  1  0  0  0  0
 14 11  1  0  0  0  0
M  END
$$$$
Title Card Required
 OpenBabel06272217483D

 14 13  0  0  0  0  0  0  0  0999 V2000
   -1.7616    0.3200   -0.0319 C   0  0  0  0  0  0  0  0  0  0  0  0
   -1.0391    0.9505   -0.5386 H   0  0  0  0  0  0  0  0  0  0  0  0
   -1.2576   -0.0557    0.8546 H   0  0  0  0  0  0  0  0  0  0  0  0
   -2.3357   -1.0748   -0.6515 C   0  0  0  0  0  0  0  0  0  0  0  0
   -1.7332   -1.6467   -0.0222 H   0  0  0  0  0  0  0  0  0  0  0  0
   -2.1285   -1.3908   -1.7046 H   0  0  0  0  0  0  0  0  0  0  0  0
    2.7282    0.1903    0.0673 Br  0  0  0  0  0 15  0  0  0  0  0  0
   -3.0965    1.0652    0.3281 C   0  0  0  0  0  0  0  0  0  0  0  0
   -3.4289    1.8631   -0.4527 H   0  0  0  0  0  0  0  0  0  0  0  0
   -2.8988    1.8263    1.0976 H   0  0  0  0  0  0  0  0  0  0  0  0
   -4.1285   -0.2116    0.4761 C   0  0  0  0  0  0  0  0  0  0  0  0
   -5.2007   -0.4384   -0.1119 H   0  0  0  0  0  0  0  0  0  0  0  0
   -4.1833   -0.4199    1.4689 H   0  0  0  0  0  0  0  0  0  0  0  0
   -3.5882   -1.0563   -0.4596 O   0  0  0  0  0  0  0  0  0  0  0  0
  1  8  1  0  0  0  0
  1  3  1  0  0  0  0
  2  1  1  0  0  0  0
  4 14  1  0  0  0  0
  4  1  1  0  0  0  0
  4  5  1  0  0  0  0
  6  4  1  0  0  0  0
  8 11  1  0  0  0  0
  8 10  1  0  0  0  0
  9  8  1  0  0  0  0
 11 13  1  0  0  0  0
 12 11  1  0  0  0  0
 14 11  1  0  0  0  0
M  END
$$$$
Title Card Required
 OpenBabel06272217483D

 14 13  0  0  0  0  0  0  0  0999 V2000
   -1.7526    0.3164   -0.0339 C   0  0  0  0  0  0  0  0  0  0  0  0
   -1.1260    0.9455   -0.5408 H   0  0  0  0  0  0  0  0  0  0  0  0
   -1.3011    0.0014    0.8682 H   0  0  0  0  0  0  0  0  0  0  0  0
   -2.3088   -1.0744   -0.6521 C   0  0  0  0  0  0  0  0  0  0  0  0
   -1.7485   -1.6830   -0.1034 H   0  0  0  0  0  0  0  0  0  0  0  0
   -2.1607   -1.3706   -1.7169 H   0  0  0  0  0  0  0  0  0  0  0  0
    2.7314    0.1910    0.0675 Br  0  0  0  0  0 15  0  0  0  0  0  0
   -3.1053    1.0648    0.3364 C   0  0  0  0  0  0  0  0  0  0  0  0
   -3.3720    1.8206   -0.5220 H   0  0  0  0  0  0  0  0  0  0  0  0
   -2.8443    1.8121    1.0813 H   0  0  0  0  0  0  0  0  0  0  0  0
   -4.1296   -0.2173    0.4719 C   0  0  0  0  0  0  0  0  0  0  0  0
   -5.1827   -0.4020   -0.0914 H   0  0  0  0  0  0  0  0  0  0  0  0
   -4.2426   -0.4430    1.4857 H   0  0  0  0  0  0  0  0  0  0  0  0
   -3.6167   -1.0525   -0.4538 O   0  0  0  0  0  0  0  0  0  0  0  0
  1  8  1  0  0  0  0
  1  3  1  0  0  0  0
  2  1  1  0  0  0  0
  4 14  1  0  0  0  0
  4  5  1  0  0  0  0
  4  1  1  0  0  0  0
  6  4  1  0  0  0  0
  8 11  1  0  0  0  0
  8 10  1  0  0  0  0
  9  8  1  0  0  0  0
 11 13  1  0  0  0  0
 12 11  1  0  0  0  0
 14 11  1  0  0  0  0
M  END
$$$$
Title Card Required
 OpenBabel06272217483D

 14 13  0  0  0  0  0  0  0  0999 V2000
   -1.7500    0.3112   -0.0356 C   0  0  0  0  0  0  0  0  0  0  0  0
   -1.1770    0.9603   -0.5684 H   0  0  0  0  0  0  0  0  0  0  0  0
   -1.3269    0.0526    0.8977 H   0  0  0  0  0  0  0  0  0  0  0  0
   -2.2814   -1.0691   -0.6558 C   0  0  0  0  0  0  0  0  0  0  0  0
   -1.7344   -1.7701   -0.1408 H   0  0  0  0  0  0  0  0  0  0  0  0
   -2.1847   -1.3414   -1.7241 H   0  0  0  0  0  0  0  0  0  0  0  0
    2.7342    0.1917    0.0677 Br  0  0  0  0  0 15  0  0  0  0  0  0
   -3.1134    1.0648    0.3406 C   0  0  0  0  0  0  0  0  0  0  0  0
   -3.3186    1.7557   -0.5718 H   0  0  0  0  0  0  0  0  0  0  0  0
   -2.8040    1.7930    1.0849 H   0  0  0  0  0  0  0  0  0  0  0  0
   -4.1329   -0.2187    0.4638 C   0  0  0  0  0  0  0  0  0  0  0  0
   -5.1535   -0.3321   -0.0388 H   0  0  0  0  0  0  0  0  0  0  0  0
   -4.2921   -0.4845    1.5337 H   0  0  0  0  0  0  0  0  0  0  0  0
   -3.6440   -1.0519   -0.4488 O   0  0  0  0  0  0  0  0  0  0  0  0
  1  8  1  0  0  0  0
  1  3  1  0  0  0  0
  2  1  1  0  0  0  0
  4 14  1  0  0  0  0
  4  5  1  0  0  0  0
  4  1  1  0  0  0  0
  6  4  1  0  0  0  0
  8 11  1  0  0  0  0
  8 10  1  0  0  0  0
  9  8  1  0  0  0  0
 11 13  1  0  0  0  0
 12 11  1  0  0  0  0
 14 11  1  0  0  0  0
M  END
$$$$
Title Card Required
 OpenBabel06272217483D

 14 13  0  0  0  0  0  0  0  0999 V2000
   -1.7526    0.3044   -0.0364 C   0  0  0  0  0  0  0  0  0  0  0  0
   -1.1960    0.9918   -0.6157 H   0  0  0  0  0  0  0  0  0  0  0  0
   -1.3355    0.0960    0.9368 H   0  0  0  0  0  0  0  0  0  0  0  0
   -2.2561   -1.0611   -0.6606 C   0  0  0  0  0  0  0  0  0  0  0  0
   -1.7082   -1.8793   -0.1536 H   0  0  0  0  0  0  0  0  0  0  0  0
   -2.2005   -1.3061   -1.7297 H   0  0  0  0  0  0  0  0  0  0  0  0
    2.7368    0.1923    0.0679 Br  0  0  0  0  0 15  0  0  0  0  0  0
   -3.1205    1.0645    0.3415 C   0  0  0  0  0  0  0  0  0  0  0  0
   -3.2740    1.6811   -0.6029 H   0  0  0  0  0  0  0  0  0  0  0  0
   -2.7775    1.7734    1.1016 H   0  0  0  0  0  0  0  0  0  0  0  0
   -4.1375   -0.2167    0.4565 C   0  0  0  0  0  0  0  0  0  0  0  0
   -5.1278   -0.2414    0.0279 H   0  0  0  0  0  0  0  0  0  0  0  0
   -4.3283   -0.5300    1.5773 H   0  0  0  0  0  0  0  0  0  0  0  0
   -3.6678   -1.0541   -0.4452 O   0  0  0  0  0  0  0  0  0  0  0  0
  1  8  1  0  0  0  0
  1  3  1  0  0  0  0
  2  1  1  0  0  0  0
  4 14  1  0  0  0  0
  4  5  1  0  0  0  0
  4  1  1  0  0  0  0
  6  4  1  0  0  0  0
  8 11  1  0  0  0  0
  8 10  1  0  0  0  0
  9  8  1  0  0  0  0
 11 13  1  0  0  0  0
 12 11  1  0  0  0  0
 14 11  1  0  0  0  0
M  END
$$$$
Title Card Required
 OpenBabel06272217483D

 14 13  0  0  0  0  0  0  0  0999 V2000
   -1.7582    0.2968   -0.0365 C   0  0  0  0  0  0  0  0  0  0  0  0
   -1.1996    1.0266   -0.6713 H   0  0  0  0  0  0  0  0  0  0  0  0
   -1.3321    0.1361    0.9766 H   0  0  0  0  0  0  0  0  0  0  0  0
   -2.2312   -1.0525   -0.6648 C   0  0  0  0  0  0  0  0  0  0  0  0
   -1.6867   -1.9876   -0.1637 H   0  0  0  0  0  0  0  0  0  0  0  0
   -2.2091   -1.2636   -1.7369 H   0  0  0  0  0  0  0  0  0  0  0  0
    2.7393    0.1929    0.0682 Br  0  0  0  0  0 15  0  0  0  0  0  0
   -3.1268    1.0630    0.3400 C   0  0  0  0  0  0  0  0  0  0  0  0
   -3.2383    1.6013   -0.6221 H   0  0  0  0  0  0  0  0  0  0  0  0
   -2.7631    1.7523    1.1258 H   0  0  0  0  0  0  0  0  0  0  0  0
   -4.1424   -0.2120    0.4519 C   0  0  0  0  0  0  0  0  0  0  0  0
   -5.1181   -0.1310    0.1001 H   0  0  0  0  0  0  0  0  0  0  0  0
   -4.3519   -0.5748    1.6035 H   0  0  0  0  0  0  0  0  0  0  0  0
   -3.6894   -1.0586   -0.4428 O   0  0  0  0  0  0  0  0  0  0  0  0
  1  8  1  0  0  0  0
  1  3  1  0  0  0  0
  2  1  1  0  0  0  0
  4 14  1  0  0  0  0
  4  5  1  0  0  0  0
  4  1  1  0  0  0  0
  6  4  1  0  0  0  0
  8 11  1  0  0  0  0
  8 10  1  0  0  0  0
  9  8  1  0  0  0  0
 11 13  1  0  0  0  0
 12 11  1  0  0  0  0
 14 11  1  0  0  0  0
M  END
$$$$
Title Card Required
 OpenBabel06272217483D

 14 13  0  0  0  0  0  0  0  0999 V2000
   -1.7656    0.2890   -0.0359 C   0  0  0  0  0  0  0  0  0  0  0  0
   -1.1996    1.0507   -0.7235 H   0  0  0  0  0  0  0  0  0  0  0  0
   -1.3192    0.1754    1.0070 H   0  0  0  0  0  0  0  0  0  0  0  0
   -2.2056   -1.0447   -0.6676 C   0  0  0  0  0  0  0  0  0  0  0  0
   -1.6787   -2.0785   -0.1824 H   0  0  0  0  0  0  0  0  0  0  0  0
   -2.2100   -1.2122   -1.7472 H   0  0  0  0  0  0  0  0  0  0  0  0
    2.7419    0.1935    0.0684 Br  0  0  0  0  0 15  0  0  0  0  0  0
   -3.1322    1.0598    0.3369 C   0  0  0  0  0  0  0  0  0  0  0  0
   -3.2138    1.5208   -0.6357 H   0  0  0  0  0  0  0  0  0  0  0  0
   -2.7625    1.7278    1.1530 H   0  0  0  0  0  0  0  0  0  0  0  0
   -4.1467   -0.2042    0.4512 C   0  0  0  0  0  0  0  0  0  0  0  0
   -5.1359    0.0026    0.1724 H   0  0  0  0  0  0  0  0  0  0  0  0
   -4.3616   -0.6164    1.6063 H   0  0  0  0  0  0  0  0  0  0  0  0
   -3.7096   -1.0658   -0.4417 O   0  0  0  0  0  0  0  0  0  0  0  0
  1  8  1  0  0  0  0
  1  3  1  0  0  0  0
  2  1  1  0  0  0  0
  4 14  1  0  0  0  0
  4  5  1  0  0  0  0
  4  1  1  0  0  0  0
  6  4  1  0  0  0  0
  8 11  1  0  0  0  0
  8 10  1  0  0  0  0
  9  8  1  0  0  0  0
 11 13  1  0  0  0  0
 12 11  1  0  0  0  0
 14 11  1  0  0  0  0
M  END
$$$$
Title Card Required
 OpenBabel06272217483D

 14 13  0  0  0  0  0  0  0  0999 V2000
   -1.7735    0.2823   -0.0344 C   0  0  0  0  0  0  0  0  0  0  0  0
   -1.2038    1.0514   -0.7605 H   0  0  0  0  0  0  0  0  0  0  0  0
   -1.2994    0.2126    1.0165 H   0  0  0  0  0  0  0  0  0  0  0  0
   -2.1800   -1.0389   -0.6685 C   0  0  0  0  0  0  0  0  0  0  0  0
   -1.6888   -2.1360   -0.2151 H   0  0  0  0  0  0  0  0  0  0  0  0
   -2.2016   -1.1516   -1.7602 H   0  0  0  0  0  0  0  0  0  0  0  0
    2.7446    0.1942    0.0686 Br  0  0  0  0  0 15  0  0  0  0  0  0
   -3.1363    1.0535    0.3331 C   0  0  0  0  0  0  0  0  0  0  0  0
   -3.2057    1.4495   -0.6516 H   0  0  0  0  0  0  0  0  0  0  0  0
   -2.7790    1.6996    1.1771 H   0  0  0  0  0  0  0  0  0  0  0  0
   -4.1505   -0.1935    0.4552 C   0  0  0  0  0  0  0  0  0  0  0  0
   -5.1778    0.1557    0.2414 H   0  0  0  0  0  0  0  0  0  0  0  0
   -4.3551   -0.6501    1.5806 H   0  0  0  0  0  0  0  0  0  0  0  0
   -3.7285   -1.0756   -0.4420 O   0  0  0  0  0  0  0  0  0  0  0  0
  1  8  1  0  0  0  0
  1  3  1  0  0  0  0
  2  1  1  0  0  0  0
  4 14  1  0  0  0  0
  4  5  1  0  0  0  0
  4  1  1  0  0  0  0
  6  4  1  0  0  0  0
  8 11  1  0  0  0  0
  8 10  1  0  0  0  0
  9  8  1  0  0  0  0
 11 13  1  0  0  0  0
 12 11  1  0  0  0  0
 14 11  1  0  0  0  0
M  END
$$$$
Title Card Required
 OpenBabel06272217483D

 14 13  0  0  0  0  0  0  0  0999 V2000
   -1.7807    0.2776   -0.0316 C   0  0  0  0  0  0  0  0  0  0  0  0
   -1.2159    1.0223   -0.7738 H   0  0  0  0  0  0  0  0  0  0  0  0
   -1.2751    0.2444    0.9981 H   0  0  0  0  0  0  0  0  0  0  0  0
   -2.1562   -1.0363   -0.6677 C   0  0  0  0  0  0  0  0  0  0  0  0
   -1.7166   -2.1483   -0.2620 H   0  0  0  0  0  0  0  0  0  0  0  0
   -2.1834   -1.0845   -1.7724 H   0  0  0  0  0  0  0  0  0  0  0  0
    2.7474    0.1949    0.0688 Br  0  0  0  0  0 15  0  0  0  0  0  0
   -3.1384    1.0436    0.3296 C   0  0  0  0  0  0  0  0  0  0  0  0
   -3.2180    1.3981   -0.6752 H   0  0  0  0  0  0  0  0  0  0  0  0
   -2.8136    1.6700    1.1925 H   0  0  0  0  0  0  0  0  0  0  0  0
   -4.1549   -0.1798    0.4635 C   0  0  0  0  0  0  0  0  0  0  0  0
   -5.2206    0.3113    0.3049 H   0  0  0  0  0  0  0  0  0  0  0  0
   -4.3320   -0.6712    1.5276 H   0  0  0  0  0  0  0  0  0  0  0  0
   -3.7455   -1.0872   -0.4439 O   0  0  0  0  0  0  0  0  0  0  0  0
  1  8  1  0  0  0  0
  1  3  1  0  0  0  0
  2  1  1  0  0  0  0
  4 14  1  0  0  0  0
  4  5  1  0  0  0  0
  4  1  1  0  0  0  0
  6  4  1  0  0  0  0
  8 11  1  0  0  0  0
  8 10  1  0  0  0  0
  9  8  1  0  0  0  0
 11 13  1  0  0  0  0
 12 11  1  0  0  0  0
 14 11  1  0  0  0  0
M  END
$$$$
Title Card Required
 OpenBabel06272217483D

 14 13  0  0  0  0  0  0  0  0999 V2000
   -1.7863    0.2752   -0.0276 C   0  0  0  0  0  0  0  0  0  0  0  0
   -1.2350    0.9682   -0.7637 H   0  0  0  0  0  0  0  0  0  0  0  0
   -1.2480    0.2678    0.9559 H   0  0  0  0  0  0  0  0  0  0  0  0
   -2.1360   -1.0368   -0.6660 C   0  0  0  0  0  0  0  0  0  0  0  0
   -1.7569   -2.1157   -0.3180 H   0  0  0  0  0  0  0  0  0  0  0  0
   -2.1570   -1.0159   -1.7793 H   0  0  0  0  0  0  0  0  0  0  0  0
    2.7500    0.1955    0.0690 Br  0  0  0  0  0 15  0  0  0  0  0  0
   -3.1386    1.0302    0.3264 C   0  0  0  0  0  0  0  0  0  0  0  0
   -3.2498    1.3706   -0.7026 H   0  0  0  0  0  0  0  0  0  0  0  0
   -2.8628    1.6439    1.1980 H   0  0  0  0  0  0  0  0  0  0  0  0
   -4.1608   -0.1637    0.4744 C   0  0  0  0  0  0  0  0  0  0  0  0
   -5.2422    0.4473    0.3602 H   0  0  0  0  0  0  0  0  0  0  0  0
   -4.2967   -0.6781    1.4591 H   0  0  0  0  0  0  0  0  0  0  0  0
   -3.7604   -1.0995   -0.4469 O   0  0  0  0  0  0  0  0  0  0  0  0
  1  8  1  0  0  0  0
  1  3  1  0  0  0  0
  2  1  1  0  0  0  0
  4 14  1  0  0  0  0
  4  5  1  0  0  0  0
  4  1  1  0  0  0  0
  6  4  1  0  0  0  0
  8 11  1  0  0  0  0
  8 10  1  0  0  0  0
  9  8  1  0  0  0  0
 11 13  1  0  0  0  0
 12 11  1  0  0  0  0
 14 11  1  0  0  0  0
M  END
$$$$
Title Card Required
 OpenBabel06272217483D

 14 13  0  0  0  0  0  0  0  0999 V2000
   -1.7907    0.2746   -0.0225 C   0  0  0  0  0  0  0  0  0  0  0  0
   -1.2561    0.9000   -0.7389 H   0  0  0  0  0  0  0  0  0  0  0  0
   -1.2168    0.2820    0.9010 H   0  0  0  0  0  0  0  0  0  0  0  0
   -2.1201   -1.0394   -0.6644 C   0  0  0  0  0  0  0  0  0  0  0  0
   -1.8017   -2.0514   -0.3765 H   0  0  0  0  0  0  0  0  0  0  0  0
   -2.1246   -0.9487   -1.7783 H   0  0  0  0  0  0  0  0  0  0  0  0
    2.7526    0.1962    0.0693 Br  0  0  0  0  0 15  0  0  0  0  0  0
   -3.1372    1.0136    0.3227 C   0  0  0  0  0  0  0  0  0  0  0  0
   -3.2971    1.3632   -0.7246 H   0  0  0  0  0  0  0  0  0  0  0  0
   -2.9220    1.6255    1.1964 H   0  0  0  0  0  0  0  0  0  0  0  0
   -4.1679   -0.1452    0.4860 C   0  0  0  0  0  0  0  0  0  0  0  0
   -5.2363    0.5536    0.4067 H   0  0  0  0  0  0  0  0  0  0  0  0
   -4.2552   -0.6761    1.3942 H   0  0  0  0  0  0  0  0  0  0  0  0
   -3.7734   -1.1118   -0.4506 O   0  0  0  0  0  0  0  0  0  0  0  0
  1  8  1  0  0  0  0
  1  3  1  0  0  0  0
  2  1  1  0  0  0  0
  4 14  1  0  0  0  0
  4  5  1  0  0  0  0
  4  1  1  0  0  0  0
  6  4  1  0  0  0  0
  8 11  1  0  0  0  0
  8 10  1  0  0  0  0
  9  8  1  0  0  0  0
 11 13  1  0  0  0  0
 12 11  1  0  0  0  0
 14 11  1  0  0  0  0
M  END
$$$$
Title Card Required
 OpenBabel06272217483D

 14 13  0  0  0  0  0  0  0  0999 V2000
   -1.7952    0.2745   -0.0160 C   0  0  0  0  0  0  0  0  0  0  0  0
   -1.2715    0.8293   -0.7129 H   0  0  0  0  0  0  0  0  0  0  0  0
   -1.1753    0.2875    0.8441 H   0  0  0  0  0  0  0  0  0  0  0  0
   -2.1087   -1.0416   -0.6639 C   0  0  0  0  0  0  0  0  0  0  0  0
   -1.8423   -1.9801   -0.4308 H   0  0  0  0  0  0  0  0  0  0  0  0
   -2.0859   -0.8816   -1.7681 H   0  0  0  0  0  0  0  0  0  0  0  0
    2.7552    0.1969    0.0695 Br  0  0  0  0  0 15  0  0  0  0  0  0
   -3.1345    0.9930    0.3171 C   0  0  0  0  0  0  0  0  0  0  0  0
   -3.3589    1.3717   -0.7322 H   0  0  0  0  0  0  0  0  0  0  0  0
   -2.9918    1.6179    1.1907 H   0  0  0  0  0  0  0  0  0  0  0  0
   -4.1762   -0.1227    0.4965 C   0  0  0  0  0  0  0  0  0  0  0  0
   -5.2014    0.6296    0.4468 H   0  0  0  0  0  0  0  0  0  0  0  0
   -4.2102   -0.6751    1.3544 H   0  0  0  0  0  0  0  0  0  0  0  0
   -3.7857   -1.1244   -0.4552 O   0  0  0  0  0  0  0  0  0  0  0  0
  1  8  1  0  0  0  0
  1  3  1  0  0  0  0
  2  1  1  0  0  0  0
  4 14  1  0  0  0  0
  4  5  1  0  0  0  0
  4  1  1  0  0  0  0
  6  4  1  0  0  0  0
  8 11  1  0  0  0  0
  8 10  1  0  0  0  0
  9  8  1  0  0  0  0
 11 13  1  0  0  0  0
 12 11  1  0  0  0  0
 14 11  1  0  0  0  0
M  END
$$$$
Title Card Required
 OpenBabel06272217483D

 14 13  0  0  0  0  0  0  0  0999 V2000
   -1.8015    0.2733   -0.0065 C   0  0  0  0  0  0  0  0  0  0  0  0
   -1.2664    0.7747   -0.7089 H   0  0  0  0  0  0  0  0  0  0  0  0
   -1.1147    0.2826    0.7989 H   0  0  0  0  0  0  0  0  0  0  0  0
   -2.1041   -1.0383   -0.6661 C   0  0  0  0  0  0  0  0  0  0  0  0
   -1.8605   -1.9559   -0.4660 H   0  0  0  0  0  0  0  0  0  0  0  0
   -2.0406   -0.8156   -1.7480 H   0  0  0  0  0  0  0  0  0  0  0  0
    2.7581    0.1976    0.0697 Br  0  0  0  0  0 15  0  0  0  0  0  0
   -3.1304    0.9676    0.3084 C   0  0  0  0  0  0  0  0  0  0  0  0
   -3.4334    1.3940   -0.7145 H   0  0  0  0  0  0  0  0  0  0  0  0
   -3.0736    1.6245    1.1812 H   0  0  0  0  0  0  0  0  0  0  0  0
   -4.1857   -0.0945    0.5040 C   0  0  0  0  0  0  0  0  0  0  0  0
   -5.1345    0.6671    0.4801 H   0  0  0  0  0  0  0  0  0  0  0  0
   -4.1625   -0.6849    1.3643 H   0  0  0  0  0  0  0  0  0  0  0  0
   -3.7980   -1.1373   -0.4608 O   0  0  0  0  0  0  0  0  0  0  0  0
  1  8  1  0  0  0  0
  1  3  1  0  0  0  0
  2  1  1  0  0  0  0
  4  5  1  0  0  0  0
  4 14  1  0  0  0  0
  4  1  1  0  0  0  0
  6  4  1  0  0  0  0
  8 11  1  0  0  0  0
  8 10  1  0  0  0  0
  9  8  1  0  0  0  0
 11 13  1  0  0  0  0
 12 11  1  0  0  0  0
 14 11  1  0  0  0  0
M  END
$$$$
Title Card Required
 OpenBabel06272217483D

 14 13  0  0  0  0  0  0  0  0999 V2000
   -1.8085    0.2705    0.0050 C   0  0  0  0  0  0  0  0  0  0  0  0
   -1.2366    0.7547   -0.7386 H   0  0  0  0  0  0  0  0  0  0  0  0
   -1.0459    0.2688    0.7783 H   0  0  0  0  0  0  0  0  0  0  0  0
   -2.1080   -1.0275   -0.6710 C   0  0  0  0  0  0  0  0  0  0  0  0
   -1.8453   -2.0110   -0.4704 H   0  0  0  0  0  0  0  0  0  0  0  0
   -1.9983   -0.7642   -1.7261 H   0  0  0  0  0  0  0  0  0  0  0  0
    2.7608    0.1983    0.0700 Br  0  0  0  0  0 15  0  0  0  0  0  0
   -3.1260    0.9428    0.2982 C   0  0  0  0  0  0  0  0  0  0  0  0
   -3.5016    1.4218   -0.6719 H   0  0  0  0  0  0  0  0  0  0  0  0
   -3.1511    1.6412    1.1665 H   0  0  0  0  0  0  0  0  0  0  0  0
   -4.1939   -0.0667    0.5082 C   0  0  0  0  0  0  0  0  0  0  0  0
   -5.0562    0.6597    0.5005 H   0  0  0  0  0  0  0  0  0  0  0  0
   -4.1201   -0.6968    1.4142 H   0  0  0  0  0  0  0  0  0  0  0  0
   -3.8084   -1.1483   -0.4665 O   0  0  0  0  0  0  0  0  0  0  0  0
  1  8  1  0  0  0  0
  1  3  1  0  0  0  0
  2  1  1  0  0  0  0
  4  5  1  0  0  0  0
  4 14  1  0  0  0  0
  4  1  1  0  0  0  0
  6  4  1  0  0  0  0
  8 11  1  0  0  0  0
  8 10  1  0  0  0  0
  9  8  1  0  0  0  0
 11 13  1  0  0  0  0
 12 11  1  0  0  0  0
 14 11  1  0  0  0  0
M  END
$$$$
Title Card Required
 OpenBabel06272217483D

 14 13  0  0  0  0  0  0  0  0999 V2000
   -1.8143    0.2671    0.0180 C   0  0  0  0  0  0  0  0  0  0  0  0
   -1.1972    0.7571   -0.7836 H   0  0  0  0  0  0  0  0  0  0  0  0
   -0.9794    0.2477    0.7725 H   0  0  0  0  0  0  0  0  0  0  0  0
   -2.1191   -1.0137   -0.6771 C   0  0  0  0  0  0  0  0  0  0  0  0
   -1.8113   -2.0954   -0.4584 H   0  0  0  0  0  0  0  0  0  0  0  0
   -1.9604   -0.7267   -1.7097 H   0  0  0  0  0  0  0  0  0  0  0  0
    2.7635    0.1991    0.0702 Br  0  0  0  0  0 15  0  0  0  0  0  0
   -3.1216    0.9196    0.2873 C   0  0  0  0  0  0  0  0  0  0  0  0
   -3.5594    1.4513   -0.6107 H   0  0  0  0  0  0  0  0  0  0  0  0
   -3.2223    1.6604    1.1415 H   0  0  0  0  0  0  0  0  0  0  0  0
   -4.1995   -0.0422    0.5117 C   0  0  0  0  0  0  0  0  0  0  0  0
   -4.9894    0.6250    0.5088 H   0  0  0  0  0  0  0  0  0  0  0  0
   -4.0835   -0.6934    1.4745 H   0  0  0  0  0  0  0  0  0  0  0  0
   -3.8177   -1.1576   -0.4725 O   0  0  0  0  0  0  0  0  0  0  0  0
  1  8  1  0  0  0  0
  1  3  1  0  0  0  0
  2  1  1  0  0  0  0
  4 14  1  0  0  0  0
  4  5  1  0  0  0  0
  4  1  1  0  0  0  0
  6  4  1  0  0  0  0
  8 11  1  0  0  0  0
  8 10  1  0  0  0  0
  9  8  1  0  0  0  0
 11 13  1  0  0  0  0
 12 11  1  0  0  0  0
 14 11  1  0  0  0  0
M  END
$$$$
Title Card Required
 OpenBabel06272217483D

 14 13  0  0  0  0  0  0  0  0999 V2000
   -1.8150    0.2637    0.0338 C   0  0  0  0  0  0  0  0  0  0  0  0
   -1.1627    0.7704   -0.8228 H   0  0  0  0  0  0  0  0  0  0  0  0
   -0.9226    0.2153    0.7708 H   0  0  0  0  0  0  0  0  0  0  0  0
   -2.1405   -1.0001   -0.6843 C   0  0  0  0  0  0  0  0  0  0  0  0
   -1.7683   -2.1597   -0.4407 H   0  0  0  0  0  0  0  0  0  0  0  0
   -1.9239   -0.7024   -1.7055 H   0  0  0  0  0  0  0  0  0  0  0  0
    2.7667    0.2000    0.0705 Br  0  0  0  0  0 15  0  0  0  0  0  0
   -3.1173    0.8965    0.2749 C   0  0  0  0  0  0  0  0  0  0  0  0
   -3.6079    1.4864   -0.5278 H   0  0  0  0  0  0  0  0  0  0  0  0
   -3.2916    1.6771    1.0943 H   0  0  0  0  0  0  0  0  0  0  0  0
   -4.1980   -0.0234    0.5178 C   0  0  0  0  0  0  0  0  0  0  0  0
   -4.9798    0.5866    0.5023 H   0  0  0  0  0  0  0  0  0  0  0  0
   -4.0514   -0.6519    1.5300 H   0  0  0  0  0  0  0  0  0  0  0  0
   -3.8273   -1.1662   -0.4798 O   0  0  0  0  0  0  0  0  0  0  0  0
  1  8  1  0  0  0  0
  1  3  1  0  0  0  0
  2  1  1  0  0  0  0
  4 14  1  0  0  0  0
  4  5  1  0  0  0  0
  4  1  1  0  0  0  0
  6  4  1  0  0  0  0
  8 11  1  0  0  0  0
  8 10  1  0  0  0  0
  9  8  1  0  0  0  0
 11 13  1  0  0  0  0
 12 11  1  0  0  0  0
 14 11  1  0  0  0  0
M  END
$$$$
Title Card Required
 OpenBabel06272217483D

 14 13  0  0  0  0  0  0  0  0999 V2000
   -1.8048    0.2618    0.0485 C   0  0  0  0  0  0  0  0  0  0  0  0
   -1.1619    0.7833   -0.8163 H   0  0  0  0  0  0  0  0  0  0  0  0
   -0.9107    0.1771    0.7666 H   0  0  0  0  0  0  0  0  0  0  0  0
   -2.1714   -0.9936   -0.6907 C   0  0  0  0  0  0  0  0  0  0  0  0
   -1.7388   -2.1380   -0.4299 H   0  0  0  0  0  0  0  0  0  0  0  0
   -1.9034   -0.7064   -1.7209 H   0  0  0  0  0  0  0  0  0  0  0  0
    2.7701    0.2009    0.0708 Br  0  0  0  0  0 15  0  0  0  0  0  0
   -3.1151    0.8813    0.2650 C   0  0  0  0  0  0  0  0  0  0  0  0
   -3.6276    1.5225   -0.4576 H   0  0  0  0  0  0  0  0  0  0  0  0
   -3.3328    1.6800    1.0325 H   0  0  0  0  0  0  0  0  0  0  0  0
   -4.1839   -0.0213    0.5273 C   0  0  0  0  0  0  0  0  0  0  0  0
   -5.0893    0.5770    0.4758 H   0  0  0  0  0  0  0  0  0  0  0  0
   -4.0373   -0.5613    1.5500 H   0  0  0  0  0  0  0  0  0  0  0  0
   -3.8350   -1.1716   -0.4873 O   0  0  0  0  0  0  0  0  0  0  0  0
  1  8  1  0  0  0  0
  1  3  1  0  0  0  0
  2  1  1  0  0  0  0
  4 14  1  0  0  0  0
  4  5  1  0  0  0  0
  4  1  1  0  0  0  0
  6  4  1  0  0  0  0
  8 11  1  0  0  0  0
  8 10  1  0  0  0  0
  9  8  1  0  0  0  0
 11 13  1  0  0  0  0
 12 11  1  0  0  0  0
 14 11  1  0  0  0  0
M  END
$$$$
Title Card Required
 OpenBabel06272217483D

 14 13  0  0  0  0  0  0  0  0999 V2000
   -1.7877    0.2613    0.0576 C   0  0  0  0  0  0  0  0  0  0  0  0
   -1.1926    0.7904   -0.7660 H   0  0  0  0  0  0  0  0  0  0  0  0
   -0.9421    0.1446    0.7649 H   0  0  0  0  0  0  0  0  0  0  0  0
   -2.2032   -0.9950   -0.6955 C   0  0  0  0  0  0  0  0  0  0  0  0
   -1.7347   -2.0441   -0.4290 H   0  0  0  0  0  0  0  0  0  0  0  0
   -1.9081   -0.7354   -1.7411 H   0  0  0  0  0  0  0  0  0  0  0  0
    2.7730    0.2018    0.0711 Br  0  0  0  0  0 15  0  0  0  0  0  0
   -3.1154    0.8776    0.2598 C   0  0  0  0  0  0  0  0  0  0  0  0
   -3.6162    1.5519   -0.4355 H   0  0  0  0  0  0  0  0  0  0  0  0
   -3.3344    1.6732    0.9885 H   0  0  0  0  0  0  0  0  0  0  0  0
   -4.1678   -0.0314    0.5368 C   0  0  0  0  0  0  0  0  0  0  0  0
   -5.2156    0.5558    0.4414 H   0  0  0  0  0  0  0  0  0  0  0  0
   -4.0415   -0.4612    1.5399 H   0  0  0  0  0  0  0  0  0  0  0  0
   -3.8386   -1.1728   -0.4928 O   0  0  0  0  0  0  0  0  0  0  0  0
  1  8  1  0  0  0  0
  1  3  1  0  0  0  0
  2  1  1  0  0  0  0
  4 14  1  0  0  0  0
  4  5  1  0  0  0  0
  4  1  1  0  0  0  0
  6  4  1  0  0  0  0
  8 11  1  0  0  0  0
  8 10  1  0  0  0  0
  9  8  1  0  0  0  0
 11 13  1  0  0  0  0
 12 11  1  0  0  0  0
 14 11  1  0  0  0  0
M  END
$$$$
Title Card Required
 OpenBabel06272217483D

 14 13  0  0  0  0  0  0  0  0999 V2000
   -1.7693    0.2610    0.0622 C   0  0  0  0  0  0  0  0  0  0  0  0
   -1.2334    0.7983   -0.6997 H   0  0  0  0  0  0  0  0  0  0  0  0
   -0.9887    0.1148    0.7771 H   0  0  0  0  0  0  0  0  0  0  0  0
   -2.2348   -0.9997   -0.6998 C   0  0  0  0  0  0  0  0  0  0  0  0
   -1.7459   -1.9239   -0.4308 H   0  0  0  0  0  0  0  0  0  0  0  0
   -1.9330   -0.7784   -1.7567 H   0  0  0  0  0  0  0  0  0  0  0  0
    2.7756    0.2025    0.0714 Br  0  0  0  0  0 15  0  0  0  0  0  0
   -3.1167    0.8816    0.2573 C   0  0  0  0  0  0  0  0  0  0  0  0
   -3.5849    1.5743   -0.4531 H   0  0  0  0  0  0  0  0  0  0  0  0
   -3.3105    1.6682    0.9716 H   0  0  0  0  0  0  0  0  0  0  0  0
   -4.1557   -0.0460    0.5433 C   0  0  0  0  0  0  0  0  0  0  0  0
   -5.2958    0.5014    0.4078 H   0  0  0  0  0  0  0  0  0  0  0  0
   -4.0543   -0.3763    1.5318 H   0  0  0  0  0  0  0  0  0  0  0  0
   -3.8392   -1.1713   -0.4963 O   0  0  0  0  0  0  0  0  0  0  0  0
  1  8  1  0  0  0  0
  1  3  1  0  0  0  0
  2  1  1  0  0  0  0
  4 14  1  0  0  0  0
  4  5  1  0  0  0  0
  4  1  1  0  0  0  0
  6  4  1  0  0  0  0
  8 11  1  0  0  0  0
  8 10  1  0  0  0  0
  9  8  1  0  0  0  0
 11 13  1  0  0  0  0
 12 11  1  0  0  0  0
 14 11  1  0  0  0  0
M  END
$$$$
Title Card Required
 OpenBabel06272217483D

 14 13  0  0  0  0  0  0  0  0999 V2000
   -1.7527    0.2597    0.0638 C   0  0  0  0  0  0  0  0  0  0  0  0
   -1.2661    0.8190   -0.6405 H   0  0  0  0  0  0  0  0  0  0  0  0
   -1.0345    0.0824    0.8136 H   0  0  0  0  0  0  0  0  0  0  0  0
   -2.2686   -1.0040   -0.7045 C   0  0  0  0  0  0  0  0  0  0  0  0
   -1.7564   -1.8169   -0.4246 H   0  0  0  0  0  0  0  0  0  0  0  0
   -1.9765   -0.8303   -1.7671 H   0  0  0  0  0  0  0  0  0  0  0  0
    2.7780    0.2032    0.0716 Br  0  0  0  0  0 15  0  0  0  0  0  0
   -3.1185    0.8915    0.2560 C   0  0  0  0  0  0  0  0  0  0  0  0
   -3.5366    1.5879   -0.5006 H   0  0  0  0  0  0  0  0  0  0  0  0
   -3.2685    1.6710    0.9832 H   0  0  0  0  0  0  0  0  0  0  0  0
   -4.1482   -0.0633    0.5448 C   0  0  0  0  0  0  0  0  0  0  0  0
   -5.3252    0.4162    0.3767 H   0  0  0  0  0  0  0  0  0  0  0  0
   -4.0707   -0.3152    1.5508 H   0  0  0  0  0  0  0  0  0  0  0  0
   -3.8371   -1.1674   -0.4981 O   0  0  0  0  0  0  0  0  0  0  0  0
  1  8  1  0  0  0  0
  1  3  1  0  0  0  0
  2  1  1  0  0  0  0
  4 14  1  0  0  0  0
  4  5  1  0  0  0  0
  4  1  1  0  0  0  0
  6  4  1  0  0  0  0
  8 11  1  0  0  0  0
  8 10  1  0  0  0  0
  9  8  1  0  0  0  0
 11 13  1  0  0  0  0
 12 11  1  0  0  0  0
 14 11  1  0  0  0  0
M  END
$$$$
Title Card Required
 OpenBabel06272217483D

 14 13  0  0  0  0  0  0  0  0999 V2000
   -1.7415    0.2566    0.0638 C   0  0  0  0  0  0  0  0  0  0  0  0
   -1.2730    0.8624   -0.6109 H   0  0  0  0  0  0  0  0  0  0  0  0
   -1.0712    0.0475    0.8726 H   0  0  0  0  0  0  0  0  0  0  0  0
   -2.3040   -1.0041   -0.7103 C   0  0  0  0  0  0  0  0  0  0  0  0
   -1.7458   -1.7684   -0.3985 H   0  0  0  0  0  0  0  0  0  0  0  0
   -2.0328   -0.8831   -1.7738 H   0  0  0  0  0  0  0  0  0  0  0  0
    2.7803    0.2039    0.0718 Br  0  0  0  0  0 15  0  0  0  0  0  0
   -3.1204    0.9057    0.2554 C   0  0  0  0  0  0  0  0  0  0  0  0
   -3.4765    1.5885   -0.5636 H   0  0  0  0  0  0  0  0  0  0  0  0
   -3.2160    1.6808    1.0174 H   0  0  0  0  0  0  0  0  0  0  0  0
   -4.1451   -0.0813    0.5411 C   0  0  0  0  0  0  0  0  0  0  0  0
   -5.3060    0.3128    0.3509 H   0  0  0  0  0  0  0  0  0  0  0  0
   -4.0871   -0.2828    1.5980 H   0  0  0  0  0  0  0  0  0  0  0  0
   -3.8327   -1.1619   -0.4980 O   0  0  0  0  0  0  0  0  0  0  0  0
  1  8  1  0  0  0  0
  1  3  1  0  0  0  0
  2  1  1  0  0  0  0
  4 14  1  0  0  0  0
  4  5  1  0  0  0  0
  4  1  1  0  0  0  0
  6  4  1  0  0  0  0
  8 11  1  0  0  0  0
  8 10  1  0  0  0  0
  9  8  1  0  0  0  0
 11 13  1  0  0  0  0
 12 11  1  0  0  0  0
 14 11  1  0  0  0  0
M  END
$$$$
Title Card Required
 OpenBabel06272217483D

 14 13  0  0  0  0  0  0  0  0999 V2000
   -1.7357    0.2522    0.0631 C   0  0  0  0  0  0  0  0  0  0  0  0
   -1.2564    0.9192   -0.6065 H   0  0  0  0  0  0  0  0  0  0  0  0
   -1.1019    0.0144    0.9363 H   0  0  0  0  0  0  0  0  0  0  0  0
   -2.3376   -1.0009   -0.7162 C   0  0  0  0  0  0  0  0  0  0  0  0
   -1.7181   -1.7731   -0.3575 H   0  0  0  0  0  0  0  0  0  0  0  0
   -2.0925   -0.9300   -1.7801 H   0  0  0  0  0  0  0  0  0  0  0  0
    2.7823    0.2045    0.0721 Br  0  0  0  0  0 15  0  0  0  0  0  0
   -3.1221    0.9220    0.2553 C   0  0  0  0  0  0  0  0  0  0  0  0
   -3.4141    1.5769   -0.6248 H   0  0  0  0  0  0  0  0  0  0  0  0
   -3.1623    1.6913    1.0586 H   0  0  0  0  0  0  0  0  0  0  0  0
   -4.1453   -0.0985    0.5346 C   0  0  0  0  0  0  0  0  0  0  0  0
   -5.2553    0.2093    0.3312 H   0  0  0  0  0  0  0  0  0  0  0  0
   -4.1013   -0.2720    1.6487 H   0  0  0  0  0  0  0  0  0  0  0  0
   -3.8268   -1.1557   -0.4963 O   0  0  0  0  0  0  0  0  0  0  0  0
  1  8  1  0  0  0  0
  1  3  1  0  0  0  0
  2  1  1  0  0  0  0
  4 14  1  0  0  0  0
  4  5  1  0  0  0  0
  4  1  1  0  0  0  0
  6  4  1  0  0  0  0
  8 11  1  0  0  0  0
  8 10  1  0  0  0  0
  9  8  1  0  0  0  0
 11 13  1  0  0  0  0
 12 11  1  0  0  0  0
 14 11  1  0  0  0  0
M  END
$$$$
Title Card Required
 OpenBabel06272217483D

 14 13  0  0  0  0  0  0  0  0999 V2000
   -1.7332    0.2473    0.0618 C   0  0  0  0  0  0  0  0  0  0  0  0
   -1.2272    0.9772   -0.6097 H   0  0  0  0  0  0  0  0  0  0  0  0
   -1.1346   -0.0161    0.9946 H   0  0  0  0  0  0  0  0  0  0  0  0
   -2.3697   -0.9967   -0.7216 C   0  0  0  0  0  0  0  0  0  0  0  0
   -1.6902   -1.7998   -0.3120 H   0  0  0  0  0  0  0  0  0  0  0  0
   -2.1547   -0.9728   -1.7886 H   0  0  0  0  0  0  0  0  0  0  0  0
    2.7841    0.2051    0.0723 Br  0  0  0  0  0 15  0  0  0  0  0  0
   -3.1235    0.9402    0.2558 C   0  0  0  0  0  0  0  0  0  0  0  0
   -3.3503    1.5556   -0.6798 H   0  0  0  0  0  0  0  0  0  0  0  0
   -3.1085    1.6987    1.0983 H   0  0  0  0  0  0  0  0  0  0  0  0
   -4.1470   -0.1155    0.5272 C   0  0  0  0  0  0  0  0  0  0  0  0
   -5.1896    0.1084    0.3142 H   0  0  0  0  0  0  0  0  0  0  0  0
   -4.1135   -0.2745    1.6885 H   0  0  0  0  0  0  0  0  0  0  0  0
   -3.8197   -1.1488   -0.4934 O   0  0  0  0  0  0  0  0  0  0  0  0
  1  8  1  0  0  0  0
  1  3  1  0  0  0  0
  2  1  1  0  0  0  0
  4 14  1  0  0  0  0
  4  5  1  0  0  0  0
  4  1  1  0  0  0  0
  6  4  1  0  0  0  0
  8 11  1  0  0  0  0
  8 10  1  0  0  0  0
  9  8  1  0  0  0  0
 11 13  1  0  0  0  0
 12 11  1  0  0  0  0
 14 11  1  0  0  0  0
M  END
$$$$
Title Card Required
 OpenBabel06272217483D

 14 13  0  0  0  0  0  0  0  0999 V2000
   -1.7329    0.2425    0.0596 C   0  0  0  0  0  0  0  0  0  0  0  0
   -1.1912    1.0276   -0.6082 H   0  0  0  0  0  0  0  0  0  0  0  0
   -1.1757   -0.0443    1.0426 H   0  0  0  0  0  0  0  0  0  0  0  0
   -2.4013   -0.9931   -0.7262 C   0  0  0  0  0  0  0  0  0  0  0  0
   -1.6749   -1.8307   -0.2689 H   0  0  0  0  0  0  0  0  0  0  0  0
   -2.2219   -1.0146   -1.8010 H   0  0  0  0  0  0  0  0  0  0  0  0
    2.7860    0.2057    0.0725 Br  0  0  0  0  0 15  0  0  0  0  0  0
   -3.1246    0.9614    0.2570 C   0  0  0  0  0  0  0  0  0  0  0  0
   -3.2831    1.5244   -0.7279 H   0  0  0  0  0  0  0  0  0  0  0  0
   -3.0533    1.7006    1.1325 H   0  0  0  0  0  0  0  0  0  0  0  0
   -4.1485   -0.1339    0.5194 C   0  0  0  0  0  0  0  0  0  0  0  0
   -5.1262    0.0095    0.2954 H   0  0  0  0  0  0  0  0  0  0  0  0
   -4.1235   -0.2883    1.7110 H   0  0  0  0  0  0  0  0  0  0  0  0
   -3.8109   -1.1409   -0.4888 O   0  0  0  0  0  0  0  0  0  0  0  0
  1  8  1  0  0  0  0
  1  3  1  0  0  0  0
  2  1  1  0  0  0  0
  4 14  1  0  0  0  0
  4  5  1  0  0  0  0
  4  1  1  0  0  0  0
  6  4  1  0  0  0  0
  8 11  1  0  0  0  0
  8 10  1  0  0  0  0
  9  8  1  0  0  0  0
 11 13  1  0  0  0  0
 12 11  1  0  0  0  0
 14 11  1  0  0  0  0
M  END
$$$$
Title Card Required
 OpenBabel06272217483D

 14 13  0  0  0  0  0  0  0  0999 V2000
   -1.7348    0.2382    0.0563 C   0  0  0  0  0  0  0  0  0  0  0  0
   -1.1521    1.0598   -0.5919 H   0  0  0  0  0  0  0  0  0  0  0  0
   -1.2307   -0.0694    1.0728 H   0  0  0  0  0  0  0  0  0  0  0  0
   -2.4326   -0.9910   -0.7295 C   0  0  0  0  0  0  0  0  0  0  0  0
   -1.6841   -1.8556   -0.2345 H   0  0  0  0  0  0  0  0  0  0  0  0
   -2.2961   -1.0573   -1.8177 H   0  0  0  0  0  0  0  0  0  0  0  0
    2.7880    0.2063    0.0727 Br  0  0  0  0  0 15  0  0  0  0  0  0
   -3.1252    0.9866    0.2593 C   0  0  0  0  0  0  0  0  0  0  0  0
   -3.2124    1.4831   -0.7657 H   0  0  0  0  0  0  0  0  0  0  0  0
   -2.9966    1.6951    1.1558 H   0  0  0  0  0  0  0  0  0  0  0  0
   -4.1469   -0.1548    0.5119 C   0  0  0  0  0  0  0  0  0  0  0  0
   -5.0976   -0.0839    0.2676 H   0  0  0  0  0  0  0  0  0  0  0  0
   -4.1304   -0.3150    1.7082 H   0  0  0  0  0  0  0  0  0  0  0  0
   -3.7999   -1.1314   -0.4822 O   0  0  0  0  0  0  0  0  0  0  0  0
  1  8  1  0  0  0  0
  1  3  1  0  0  0  0
  2  1  1  0  0  0  0
  4 14  1  0  0  0  0
  4  5  1  0  0  0  0
  4  1  1  0  0  0  0
  6  4  1  0  0  0  0
  8 11  1  0  0  0  0
  8 10  1  0  0  0  0
  9  8  1  0  0  0  0
 11 13  1  0  0  0  0
 12 11  1  0  0  0  0
 14 11  1  0  0  0  0
M  END
$$$$
Title Card Required
 OpenBabel06272217483D

 14 13  0  0  0  0  0  0  0  0999 V2000
   -1.7391    0.2352    0.0520 C   0  0  0  0  0  0  0  0  0  0  0  0
   -1.1165    1.0596   -0.5545 H   0  0  0  0  0  0  0  0  0  0  0  0
   -1.2973   -0.0885    1.0752 H   0  0  0  0  0  0  0  0  0  0  0  0
   -2.4602   -0.9916   -0.7314 C   0  0  0  0  0  0  0  0  0  0  0  0
   -1.7268   -1.8656   -0.2182 H   0  0  0  0  0  0  0  0  0  0  0  0
   -2.3705   -1.0974   -1.8346 H   0  0  0  0  0  0  0  0  0  0  0  0
    2.7901    0.2070    0.0729 Br  0  0  0  0  0 15  0  0  0  0  0  0
   -3.1249    1.0141    0.2625 C   0  0  0  0  0  0  0  0  0  0  0  0
   -3.1471    1.4377   -0.7863 H   0  0  0  0  0  0  0  0  0  0  0  0
   -2.9455    1.6828    1.1613 H   0  0  0  0  0  0  0  0  0  0  0  0
   -4.1401   -0.1767    0.5061 C   0  0  0  0  0  0  0  0  0  0  0  0
   -5.1350   -0.1599    0.2282 H   0  0  0  0  0  0  0  0  0  0  0  0
   -4.1319   -0.3549    1.6733 H   0  0  0  0  0  0  0  0  0  0  0  0
   -3.7872   -1.1209   -0.4736 O   0  0  0  0  0  0  0  0  0  0  0  0
  1  8  1  0  0  0  0
  1  3  1  0  0  0  0
  2  1  1  0  0  0  0
  4 14  1  0  0  0  0
  4  5  1  0  0  0  0
  4  1  1  0  0  0  0
  6  4  1  0  0  0  0
  8 11  1  0  0  0  0
  8 10  1  0  0  0  0
  9  8  1  0  0  0  0
 11 13  1  0  0  0  0
 12 11  1  0  0  0  0
 14 11  1  0  0  0  0
M  END
$$$$
Title Card Required
 OpenBabel06272217483D

 14 13  0  0  0  0  0  0  0  0999 V2000
   -1.7461    0.2338    0.0469 C   0  0  0  0  0  0  0  0  0  0  0  0
   -1.0890    1.0239   -0.4991 H   0  0  0  0  0  0  0  0  0  0  0  0
   -1.3668   -0.1011    1.0511 H   0  0  0  0  0  0  0  0  0  0  0  0
   -2.4807   -0.9953   -0.7324 C   0  0  0  0  0  0  0  0  0  0  0  0
   -1.7999   -1.8584   -0.2239 H   0  0  0  0  0  0  0  0  0  0  0  0
   -2.4359   -1.1308   -1.8460 H   0  0  0  0  0  0  0  0  0  0  0  0
    2.7922    0.2077    0.0732 Br  0  0  0  0  0 15  0  0  0  0  0  0
   -3.1233    1.0404    0.2662 C   0  0  0  0  0  0  0  0  0  0  0  0
   -3.0974    1.3983   -0.7887 H   0  0  0  0  0  0  0  0  0  0  0  0
   -2.9065    1.6694    1.1497 H   0  0  0  0  0  0  0  0  0  0  0  0
   -4.1312   -0.1969    0.5017 C   0  0  0  0  0  0  0  0  0  0  0  0
   -5.2127   -0.2123    0.1894 H   0  0  0  0  0  0  0  0  0  0  0  0
   -4.1263   -0.4053    1.6131 H   0  0  0  0  0  0  0  0  0  0  0  0
   -3.7744   -1.1106   -0.4636 O   0  0  0  0  0  0  0  0  0  0  0  0
  1  8  1  0  0  0  0
  1  3  1  0  0  0  0
  2  1  1  0  0  0  0
  4 14  1  0  0  0  0
  4  5  1  0  0  0  0
  4  1  1  0  0  0  0
  6  4  1  0  0  0  0
  8 11  1  0  0  0  0
  8 10  1  0  0  0  0
  9  8  1  0  0  0  0
 11 13  1  0  0  0  0
 12 11  1  0  0  0  0
 14 11  1  0  0  0  0
M  END
$$$$
Title Card Required
 OpenBabel06272217483D

 14 13  0  0  0  0  0  0  0  0999 V2000
   -1.7564    0.2336    0.0410 C   0  0  0  0  0  0  0  0  0  0  0  0
   -1.0663    0.9586   -0.4321 H   0  0  0  0  0  0  0  0  0  0  0  0
   -1.4334   -0.1121    1.0115 H   0  0  0  0  0  0  0  0  0  0  0  0
   -2.4935   -1.0017   -0.7335 C   0  0  0  0  0  0  0  0  0  0  0  0
   -1.8965   -1.8383   -0.2494 H   0  0  0  0  0  0  0  0  0  0  0  0
   -2.4890   -1.1565   -1.8491 H   0  0  0  0  0  0  0  0  0  0  0  0
    2.7943    0.2084    0.0734 Br  0  0  0  0  0 15  0  0  0  0  0  0
   -3.1205    1.0643    0.2700 C   0  0  0  0  0  0  0  0  0  0  0  0
   -3.0660    1.3721   -0.7784 H   0  0  0  0  0  0  0  0  0  0  0  0
   -2.8793    1.6632    1.1289 H   0  0  0  0  0  0  0  0  0  0  0  0
   -4.1240   -0.2144    0.4972 C   0  0  0  0  0  0  0  0  0  0  0  0
   -5.2892   -0.2428    0.1638 H   0  0  0  0  0  0  0  0  0  0  0  0
   -4.1131   -0.4672    1.5422 H   0  0  0  0  0  0  0  0  0  0  0  0
   -3.7623   -1.1008   -0.4522 O   0  0  0  0  0  0  0  0  0  0  0  0
  1  8  1  0  0  0  0
  1  3  1  0  0  0  0
  2  1  1  0  0  0  0
  4 14  1  0  0  0  0
  4  5  1  0  0  0  0
  4  1  1  0  0  0  0
  6  4  1  0  0  0  0
  8 11  1  0  0  0  0
  8 10  1  0  0  0  0
  9  8  1  0  0  0  0
 11 13  1  0  0  0  0
 12 11  1  0  0  0  0
 14 11  1  0  0  0  0
M  END
$$$$
Title Card Required
 OpenBabel06272217483D

 14 13  0  0  0  0  0  0  0  0999 V2000
   -1.7725    0.2335    0.0336 C   0  0  0  0  0  0  0  0  0  0  0  0
   -1.0366    0.8718   -0.3613 H   0  0  0  0  0  0  0  0  0  0  0  0
   -1.4929   -0.1299    0.9727 H   0  0  0  0  0  0  0  0  0  0  0  0
   -2.4984   -1.0106   -0.7360 C   0  0  0  0  0  0  0  0  0  0  0  0
   -2.0073   -1.8182   -0.2895 H   0  0  0  0  0  0  0  0  0  0  0  0
   -2.5278   -1.1737   -1.8436 H   0  0  0  0  0  0  0  0  0  0  0  0
    2.7965    0.2092    0.0737 Br  0  0  0  0  0 15  0  0  0  0  0  0
   -3.1164    1.0850    0.2734 C   0  0  0  0  0  0  0  0  0  0  0  0
   -3.0559    1.3667   -0.7626 H   0  0  0  0  0  0  0  0  0  0  0  0
   -2.8614    1.6750    1.1092 H   0  0  0  0  0  0  0  0  0  0  0  0
   -4.1208   -0.2287    0.4905 C   0  0  0  0  0  0  0  0  0  0  0  0
   -5.3406   -0.2513    0.1600 H   0  0  0  0  0  0  0  0  0  0  0  0
   -4.0905   -0.5477    1.4810 H   0  0  0  0  0  0  0  0  0  0  0  0
   -3.7517   -1.0911   -0.4390 O   0  0  0  0  0  0  0  0  0  0  0  0
  1  8  1  0  0  0  0
  1  3  1  0  0  0  0
  2  1  1  0  0  0  0
  4 14  1  0  0  0  0
  4  5  1  0  0  0  0
  4  1  1  0  0  0  0
  6  4  1  0  0  0  0
  8 11  1  0  0  0  0
  8 10  1  0  0  0  0
  9  8  1  0  0  0  0
 11 13  1  0  0  0  0
 12 11  1  0  0  0  0
 14 11  1  0  0  0  0
M  END
$$$$
Title Card Required
 OpenBabel06272217483D

 14 13  0  0  0  0  0  0  0  0999 V2000
   -1.7981    0.2318    0.0241 C   0  0  0  0  0  0  0  0  0  0  0  0
   -0.9768    0.7818   -0.3035 H   0  0  0  0  0  0  0  0  0  0  0  0
   -1.5379   -0.1662    0.9589 H   0  0  0  0  0  0  0  0  0  0  0  0
   -2.4944   -1.0192   -0.7423 C   0  0  0  0  0  0  0  0  0  0  0  0
   -2.1014   -1.8365   -0.3263 H   0  0  0  0  0  0  0  0  0  0  0  0
   -2.5444   -1.1793   -1.8330 H   0  0  0  0  0  0  0  0  0  0  0  0
    2.7989    0.2100    0.0740 Br  0  0  0  0  0 15  0  0  0  0  0  0
   -3.1108    1.1004    0.2760 C   0  0  0  0  0  0  0  0  0  0  0  0
   -3.0747    1.3947   -0.7518 H   0  0  0  0  0  0  0  0  0  0  0  0
   -2.8530    1.7180    1.1025 H   0  0  0  0  0  0  0  0  0  0  0  0
   -4.1241   -0.2373    0.4801 C   0  0  0  0  0  0  0  0  0  0  0  0
   -5.3461   -0.2331    0.1875 H   0  0  0  0  0  0  0  0  0  0  0  0
   -4.0571   -0.6524    1.4574 H   0  0  0  0  0  0  0  0  0  0  0  0
   -3.7444   -1.0822   -0.4245 O   0  0  0  0  0  0  0  0  0  0  0  0
  1  8  1  0  0  0  0
  1  3  1  0  0  0  0
  2  1  1  0  0  0  0
  4 14  1  0  0  0  0
  4  5  1  0  0  0  0
  4  1  1  0  0  0  0
  6  4  1  0  0  0  0
  8 11  1  0  0  0  0
  8 10  1  0  0  0  0
  9  8  1  0  0  0  0
 11 13  1  0  0  0  0
 12 11  1  0  0  0  0
 14 11  1  0  0  0  0
M  END
$$$$
Title Card Required
 OpenBabel06272217483D

 14 13  0  0  0  0  0  0  0  0999 V2000
   -1.8276    0.2280    0.0153 C   0  0  0  0  0  0  0  0  0  0  0  0
   -0.8953    0.7126   -0.2750 H   0  0  0  0  0  0  0  0  0  0  0  0
   -1.5634   -0.2139    0.9741 H   0  0  0  0  0  0  0  0  0  0  0  0
   -2.4841   -1.0234   -0.7517 C   0  0  0  0  0  0  0  0  0  0  0  0
   -2.1377   -1.9153   -0.3378 H   0  0  0  0  0  0  0  0  0  0  0  0
   -2.5349   -1.1720   -1.8283 H   0  0  0  0  0  0  0  0  0  0  0  0
    2.8011    0.2108    0.0742 Br  0  0  0  0  0 15  0  0  0  0  0  0
   -3.1048    1.1072    0.2776 C   0  0  0  0  0  0  0  0  0  0  0  0
   -3.1191    1.4512   -0.7515 H   0  0  0  0  0  0  0  0  0  0  0  0
   -2.8563    1.7783    1.1069 H   0  0  0  0  0  0  0  0  0  0  0  0
   -4.1331   -0.2383    0.4709 C   0  0  0  0  0  0  0  0  0  0  0  0
   -5.3042   -0.1941    0.2386 H   0  0  0  0  0  0  0  0  0  0  0  0
   -4.0220   -0.7490    1.4683 H   0  0  0  0  0  0  0  0  0  0  0  0
   -3.7422   -1.0763   -0.4129 O   0  0  0  0  0  0  0  0  0  0  0  0
  1  8  1  0  0  0  0
  1  3  1  0  0  0  0
  2  1  1  0  0  0  0
  4 14  1  0  0  0  0
  4  5  1  0  0  0  0
  4  1  1  0  0  0  0
  6  4  1  0  0  0  0
  8 11  1  0  0  0  0
  8 10  1  0  0  0  0
  9  8  1  0  0  0  0
 11 13  1  0  0  0  0
 12 11  1  0  0  0  0
 14 11  1  0  0  0  0
M  END
$$$$
Title Card Required
 OpenBabel06272217483D

 14 13  0  0  0  0  0  0  0  0999 V2000
   -1.8561    0.2226    0.0081 C   0  0  0  0  0  0  0  0  0  0  0  0
   -0.8206    0.6525   -0.2623 H   0  0  0  0  0  0  0  0  0  0  0  0
   -1.5813   -0.2603    0.9950 H   0  0  0  0  0  0  0  0  0  0  0  0
   -2.4701   -1.0258   -0.7614 C   0  0  0  0  0  0  0  0  0  0  0  0
   -2.1361   -2.0148   -0.3396 H   0  0  0  0  0  0  0  0  0  0  0  0
   -2.5084   -1.1559   -1.8348 H   0  0  0  0  0  0  0  0  0  0  0  0
    2.8031    0.2115    0.0745 Br  0  0  0  0  0 15  0  0  0  0  0  0
   -3.0984    1.1088    0.2786 C   0  0  0  0  0  0  0  0  0  0  0  0
   -3.1794    1.5215   -0.7523 H   0  0  0  0  0  0  0  0  0  0  0  0
   -2.8701    1.8371    1.1088 H   0  0  0  0  0  0  0  0  0  0  0  0
   -4.1447   -0.2341    0.4661 C   0  0  0  0  0  0  0  0  0  0  0  0
   -5.2389   -0.1438    0.2998 H   0  0  0  0  0  0  0  0  0  0  0  0
   -3.9906   -0.8201    1.4845 H   0  0  0  0  0  0  0  0  0  0  0  0
   -3.7437   -1.0732   -0.4051 O   0  0  0  0  0  0  0  0  0  0  0  0
  1  8  1  0  0  0  0
  1  3  1  0  0  0  0
  2  1  1  0  0  0  0
  4 14  1  0  0  0  0
  4  5  1  0  0  0  0
  4  1  1  0  0  0  0
  6  4  1  0  0  0  0
  8 11  1  0  0  0  0
  8 10  1  0  0  0  0
  9  8  1  0  0  0  0
 11 13  1  0  0  0  0
 12 11  1  0  0  0  0
 14 11  1  0  0  0  0
M  END
$$$$
Title Card Required
 OpenBabel06272217483D

 14 13  0  0  0  0  0  0  0  0999 V2000
   -1.8831    0.2153    0.0026 C   0  0  0  0  0  0  0  0  0  0  0  0
   -0.7682    0.5873   -0.2549 H   0  0  0  0  0  0  0  0  0  0  0  0
   -1.6011   -0.3005    1.0081 H   0  0  0  0  0  0  0  0  0  0  0  0
   -2.4522   -1.0295   -0.7704 C   0  0  0  0  0  0  0  0  0  0  0  0
   -2.1156   -2.1057   -0.3479 H   0  0  0  0  0  0  0  0  0  0  0  0
   -2.4677   -1.1316   -1.8534 H   0  0  0  0  0  0  0  0  0  0  0  0
    2.8050    0.2123    0.0747 Br  0  0  0  0  0 15  0  0  0  0  0  0
   -3.0916    1.1077    0.2789 C   0  0  0  0  0  0  0  0  0  0  0  0
   -3.2549    1.6008   -0.7430 H   0  0  0  0  0  0  0  0  0  0  0  0
   -2.8949    1.8877    1.1000 H   0  0  0  0  0  0  0  0  0  0  0  0
   -4.1570   -0.2262    0.4669 C   0  0  0  0  0  0  0  0  0  0  0  0
   -5.1722   -0.0809    0.3677 H   0  0  0  0  0  0  0  0  0  0  0  0
   -3.9633   -0.8639    1.4942 H   0  0  0  0  0  0  0  0  0  0  0  0
   -3.7477   -1.0723   -0.4007 O   0  0  0  0  0  0  0  0  0  0  0  0
  1  8  1  0  0  0  0
  1  3  1  0  0  0  0
  2  1  1  0  0  0  0
  4 14  1  0  0  0  0
  4  5  1  0  0  0  0
  4  1  1  0  0  0  0
  6  4  1  0  0  0  0
  8 11  1  0  0  0  0
  8 10  1  0  0  0  0
  9  8  1  0  0  0  0
 11 13  1  0  0  0  0
 12 11  1  0  0  0  0
 14 11  1  0  0  0  0
M  END
$$$$
Title Card Required
 OpenBabel06272217483D

 14 13  0  0  0  0  0  0  0  0999 V2000
   -1.9073    0.2054   -0.0010 C   0  0  0  0  0  0  0  0  0  0  0  0
   -0.7522    0.5124   -0.2492 H   0  0  0  0  0  0  0  0  0  0  0  0
   -1.6289   -0.3294    1.0047 H   0  0  0  0  0  0  0  0  0  0  0  0
   -2.4305   -1.0363   -0.7782 C   0  0  0  0  0  0  0  0  0  0  0  0
   -2.0826   -2.1673   -0.3716 H   0  0  0  0  0  0  0  0  0  0  0  0
   -2.4130   -1.0979   -1.8814 H   0  0  0  0  0  0  0  0  0  0  0  0
    2.8070    0.2130    0.0749 Br  0  0  0  0  0 15  0  0  0  0  0  0
   -3.0848    1.1052    0.2782 C   0  0  0  0  0  0  0  0  0  0  0  0
   -3.3443    1.6824   -0.7123 H   0  0  0  0  0  0  0  0  0  0  0  0
   -2.9310    1.9225    1.0758 H   0  0  0  0  0  0  0  0  0  0  0  0
   -4.1660   -0.2147    0.4748 C   0  0  0  0  0  0  0  0  0  0  0  0
   -5.1415    0.0004    0.4380 H   0  0  0  0  0  0  0  0  0  0  0  0
   -3.9424   -0.8734    1.4927 H   0  0  0  0  0  0  0  0  0  0  0  0
   -3.7542   -1.0738   -0.4004 O   0  0  0  0  0  0  0  0  0  0  0  0
  1  8  1  0  0  0  0
  1  3  1  0  0  0  0
  2  1  1  0  0  0  0
  4 14  1  0  0  0  0
  4  5  1  0  0  0  0
  4  1  1  0  0  0  0
  6  4  1  0  0  0  0
  8 11  1  0  0  0  0
  8 10  1  0  0  0  0
  9  8  1  0  0  0  0
 11 13  1  0  0  0  0
 12 11  1  0  0  0  0
 14 11  1  0  0  0  0
M  END
$$$$
Title Card Required
 OpenBabel06272217483D

 14 13  0  0  0  0  0  0  0  0999 V2000
   -1.9250    0.1930   -0.0023 C   0  0  0  0  0  0  0  0  0  0  0  0
   -0.7801    0.4385   -0.2447 H   0  0  0  0  0  0  0  0  0  0  0  0
   -1.6643   -0.3406    0.9840 H   0  0  0  0  0  0  0  0  0  0  0  0
   -2.4082   -1.0461   -0.7843 C   0  0  0  0  0  0  0  0  0  0  0  0
   -2.0449   -2.1821   -0.4111 H   0  0  0  0  0  0  0  0  0  0  0  0
   -2.3526   -1.0581   -1.9075 H   0  0  0  0  0  0  0  0  0  0  0  0
    2.8089    0.2138    0.0752 Br  0  0  0  0  0 15  0  0  0  0  0  0
   -3.0798    1.1026    0.2761 C   0  0  0  0  0  0  0  0  0  0  0  0
   -3.4322    1.7476   -0.6583 H   0  0  0  0  0  0  0  0  0  0  0  0
   -2.9713    1.9331    1.0409 H   0  0  0  0  0  0  0  0  0  0  0  0
   -4.1680   -0.2017    0.4893 C   0  0  0  0  0  0  0  0  0  0  0  0
   -5.1715    0.0945    0.5000 H   0  0  0  0  0  0  0  0  0  0  0  0
   -3.9323   -0.8440    1.4796 H   0  0  0  0  0  0  0  0  0  0  0  0
   -3.7621   -1.0776   -0.4044 O   0  0  0  0  0  0  0  0  0  0  0  0
  1  8  1  0  0  0  0
  1  3  1  0  0  0  0
  2  1  1  0  0  0  0
  4  5  1  0  0  0  0
  4 14  1  0  0  0  0
  4  1  1  0  0  0  0
  6  4  1  0  0  0  0
  8 11  1  0  0  0  0
  8 10  1  0  0  0  0
  9  8  1  0  0  0  0
 11 12  1  0  0  0  0
 11 13  1  0  0  0  0
 14 11  1  0  0  0  0
M  END
$$$$
Title Card Required
 OpenBabel06272217483D

 14 13  0  0  0  0  0  0  0  0999 V2000
   -1.9358    0.1793   -0.0020 C   0  0  0  0  0  0  0  0  0  0  0  0
   -0.8381    0.3759   -0.2425 H   0  0  0  0  0  0  0  0  0  0  0  0
   -1.7032   -0.3375    0.9561 H   0  0  0  0  0  0  0  0  0  0  0  0
   -2.3880   -1.0574   -0.7890 C   0  0  0  0  0  0  0  0  0  0  0  0
   -2.0085   -2.1549   -0.4593 H   0  0  0  0  0  0  0  0  0  0  0  0
   -2.2951   -1.0173   -1.9225 H   0  0  0  0  0  0  0  0  0  0  0  0
    2.8106    0.2145    0.0754 Br  0  0  0  0  0 15  0  0  0  0  0  0
   -3.0776    1.1004    0.2726 C   0  0  0  0  0  0  0  0  0  0  0  0
   -3.5070    1.7874   -0.5908 H   0  0  0  0  0  0  0  0  0  0  0  0
   -3.0081    1.9238    1.0067 H   0  0  0  0  0  0  0  0  0  0  0  0
   -4.1651   -0.1880    0.5074 C   0  0  0  0  0  0  0  0  0  0  0  0
   -5.2276    0.1855    0.5492 H   0  0  0  0  0  0  0  0  0  0  0  0
   -3.9318   -0.7858    1.4607 H   0  0  0  0  0  0  0  0  0  0  0  0
   -3.7708   -1.0827   -0.4116 O   0  0  0  0  0  0  0  0  0  0  0  0
  1  8  1  0  0  0  0
  1  3  1  0  0  0  0
  2  1  1  0  0  0  0
  4  5  1  0  0  0  0
  4 14  1  0  0  0  0
  4  1  1  0  0  0  0
  6  4  1  0  0  0  0
  8 11  1  0  0  0  0
  8 10  1  0  0  0  0
  9  8  1  0  0  0  0
 11 12  1  0  0  0  0
 11 13  1  0  0  0  0
 14 11  1  0  0  0  0
M  END
$$$$
Title Card Required
 OpenBabel06272217483D

 14 13  0  0  0  0  0  0  0  0999 V2000
   -1.9420    0.1642   -0.0009 C   0  0  0  0  0  0  0  0  0  0  0  0
   -0.9087    0.3273   -0.2444 H   0  0  0  0  0  0  0  0  0  0  0  0
   -1.7439   -0.3273    0.9325 H   0  0  0  0  0  0  0  0  0  0  0  0
   -2.3697   -1.0696   -0.7933 C   0  0  0  0  0  0  0  0  0  0  0  0
   -1.9729   -2.0974   -0.5120 H   0  0  0  0  0  0  0  0  0  0  0  0
   -2.2417   -0.9760   -1.9243 H   0  0  0  0  0  0  0  0  0  0  0  0
    2.8122    0.2152    0.0756 Br  0  0  0  0  0 15  0  0  0  0  0  0
   -3.0786    1.0982    0.2678 C   0  0  0  0  0  0  0  0  0  0  0  0
   -3.5689    1.8042   -0.5169 H   0  0  0  0  0  0  0  0  0  0  0  0
   -3.0384    1.9030    0.9822 H   0  0  0  0  0  0  0  0  0  0  0  0
   -4.1604   -0.1725    0.5275 C   0  0  0  0  0  0  0  0  0  0  0  0
   -5.2754    0.2651    0.5876 H   0  0  0  0  0  0  0  0  0  0  0  0
   -3.9375   -0.7090    1.4444 H   0  0  0  0  0  0  0  0  0  0  0  0
   -3.7801   -1.0889   -0.4211 O   0  0  0  0  0  0  0  0  0  0  0  0
  1  8  1  0  0  0  0
  1  3  1  0  0  0  0
  2  1  1  0  0  0  0
  4  5  1  0  0  0  0
  4 14  1  0  0  0  0
  4  1  1  0  0  0  0
  6  4  1  0  0  0  0
  8 11  1  0  0  0  0
  8 10  1  0  0  0  0
  9  8  1  0  0  0  0
 11 12  1  0  0  0  0
 11 13  1  0  0  0  0
 14 11  1  0  0  0  0
M  END
$$$$
Title Card Required
 OpenBabel06272217483D

 14 13  0  0  0  0  0  0  0  0999 V2000
   -1.9463    0.1468    0.0003 C   0  0  0  0  0  0  0  0  0  0  0  0
   -0.9717    0.2963   -0.2551 H   0  0  0  0  0  0  0  0  0  0  0  0
   -1.7858   -0.3164    0.9257 H   0  0  0  0  0  0  0  0  0  0  0  0
   -2.3530   -1.0817   -0.7983 C   0  0  0  0  0  0  0  0  0  0  0  0
   -1.9328   -2.0222   -0.5658 H   0  0  0  0  0  0  0  0  0  0  0  0
   -2.1917   -0.9328   -1.9125 H   0  0  0  0  0  0  0  0  0  0  0  0
    2.8139    0.2159    0.0758 Br  0  0  0  0  0 15  0  0  0  0  0  0
   -3.0830    1.0949    0.2612 C   0  0  0  0  0  0  0  0  0  0  0  0
   -3.6209    1.8001   -0.4413 H   0  0  0  0  0  0  0  0  0  0  0  0
   -3.0606    1.8770    0.9765 H   0  0  0  0  0  0  0  0  0  0  0  0
   -4.1551   -0.1531    0.5489 C   0  0  0  0  0  0  0  0  0  0  0  0
   -5.2992    0.3300    0.6165 H   0  0  0  0  0  0  0  0  0  0  0  0
   -3.9454   -0.6214    1.4447 H   0  0  0  0  0  0  0  0  0  0  0  0
   -3.7906   -1.0963   -0.4329 O   0  0  0  0  0  0  0  0  0  0  0  0
  1  8  1  0  0  0  0
  1  3  1  0  0  0  0
  2  1  1  0  0  0  0
  4  5  1  0  0  0  0
  4 14  1  0  0  0  0
  4  1  1  0  0  0  0
  6  4  1  0  0  0  0
  8 11  1  0  0  0  0
  8 10  1  0  0  0  0
  9  8  1  0  0  0  0
 11 12  1  0  0  0  0
 11 13  1  0  0  0  0
 14 11  1  0  0  0  0
M  END
$$$$
Title Card Required
 OpenBabel06272217483D

 14 13  0  0  0  0  0  0  0  0999 V2000
   -1.9513    0.1265    0.0014 C   0  0  0  0  0  0  0  0  0  0  0  0
   -0.9960    0.2922   -0.2825 H   0  0  0  0  0  0  0  0  0  0  0  0
   -1.8270   -0.3104    0.9504 H   0  0  0  0  0  0  0  0  0  0  0  0
   -2.3392   -1.0910   -0.8048 C   0  0  0  0  0  0  0  0  0  0  0  0
   -1.8757   -1.9579   -0.6115 H   0  0  0  0  0  0  0  0  0  0  0  0
   -2.1472   -0.8872   -1.8878 H   0  0  0  0  0  0  0  0  0  0  0  0
    2.8157    0.2167    0.0761 Br  0  0  0  0  0 15  0  0  0  0  0  0
   -3.0918    1.0893    0.2526 C   0  0  0  0  0  0  0  0  0  0  0  0
   -3.6645    1.7766   -0.3751 H   0  0  0  0  0  0  0  0  0  0  0  0
   -3.0705    1.8497    1.0015 H   0  0  0  0  0  0  0  0  0  0  0  0
   -4.1498   -0.1274    0.5695 C   0  0  0  0  0  0  0  0  0  0  0  0
   -5.2869    0.3743    0.6343 H   0  0  0  0  0  0  0  0  0  0  0  0
   -3.9498   -0.5348    1.4856 H   0  0  0  0  0  0  0  0  0  0  0  0
   -3.8029   -1.1049   -0.4470 O   0  0  0  0  0  0  0  0  0  0  0  0
  1  8  1  0  0  0  0
  1  3  1  0  0  0  0
  2  1  1  0  0  0  0
  4  5  1  0  0  0  0
  4 14  1  0  0  0  0
  4  1  1  0  0  0  0
  6  4  1  0  0  0  0
  8 11  1  0  0  0  0
  8 10  1  0  0  0  0
  9  8  1  0  0  0  0
 11 12  1  0  0  0  0
 11 13  1  0  0  0  0
 14 11  1  0  0  0  0
M  END
$$$$
Title Card Required
 OpenBabel06272217483D

 14 13  0  0  0  0  0  0  0  0999 V2000
   -1.9570    0.1056    0.0028 C   0  0  0  0  0  0  0  0  0  0  0  0
   -0.9703    0.3181   -0.3233 H   0  0  0  0  0  0  0  0  0  0  0  0
   -1.8598   -0.3097    1.0023 H   0  0  0  0  0  0  0  0  0  0  0  0
   -2.3315   -1.0934   -0.8123 C   0  0  0  0  0  0  0  0  0  0  0  0
   -1.7956   -1.9442   -0.6345 H   0  0  0  0  0  0  0  0  0  0  0  0
   -2.1161   -0.8449   -1.8597 H   0  0  0  0  0  0  0  0  0  0  0  0
    2.8174    0.2174    0.0763 Br  0  0  0  0  0 15  0  0  0  0  0  0
   -3.1038    1.0811    0.2442 C   0  0  0  0  0  0  0  0  0  0  0  0
   -3.6986    1.7453   -0.3404 H   0  0  0  0  0  0  0  0  0  0  0  0
   -3.0641    1.8216    1.0541 H   0  0  0  0  0  0  0  0  0  0  0  0
   -4.1453   -0.0983    0.5855 C   0  0  0  0  0  0  0  0  0  0  0  0
   -5.2375    0.3895    0.6379 H   0  0  0  0  0  0  0  0  0  0  0  0
   -3.9474   -0.4665    1.5677 H   0  0  0  0  0  0  0  0  0  0  0  0
   -3.8154   -1.1137   -0.4610 O   0  0  0  0  0  0  0  0  0  0  0  0
  1  8  1  0  0  0  0
  1  3  1  0  0  0  0
  2  1  1  0  0  0  0
  4  5  1  0  0  0  0
  4 14  1  0  0  0  0
  4  1  1  0  0  0  0
  6  4  1  0  0  0  0
  8 11  1  0  0  0  0
  8 10  1  0  0  0  0
  9  8  1  0  0  0  0
 11 12  1  0  0  0  0
 11 13  1  0  0  0  0
 14 11  1  0  0  0  0
M  END
$$$$
Title Card Required
 OpenBabel06272217483D

 14 13  0  0  0  0  0  0  0  0999 V2000
   -1.9611    0.0860    0.0048 C   0  0  0  0  0  0  0  0  0  0  0  0
   -0.9270    0.3615   -0.3631 H   0  0  0  0  0  0  0  0  0  0  0  0
   -1.8825   -0.3085    1.0592 H   0  0  0  0  0  0  0  0  0  0  0  0
   -2.3294   -1.0906   -0.8195 C   0  0  0  0  0  0  0  0  0  0  0  0
   -1.7060   -1.9681   -0.6386 H   0  0  0  0  0  0  0  0  0  0  0  0
   -2.0992   -0.8073   -1.8391 H   0  0  0  0  0  0  0  0  0  0  0  0
    2.8190    0.2181    0.0765 Br  0  0  0  0  0 15  0  0  0  0  0  0
   -3.1172    1.0712    0.2379 C   0  0  0  0  0  0  0  0  0  0  0  0
   -3.7268    1.7181   -0.3418 H   0  0  0  0  0  0  0  0  0  0  0  0
   -3.0448    1.7868    1.1158 H   0  0  0  0  0  0  0  0  0  0  0  0
   -4.1409   -0.0690    0.5979 C   0  0  0  0  0  0  0  0  0  0  0  0
   -5.1675    0.3814    0.6290 H   0  0  0  0  0  0  0  0  0  0  0  0
   -3.9421   -0.4127    1.6588 H   0  0  0  0  0  0  0  0  0  0  0  0
   -3.8272   -1.1217   -0.4738 O   0  0  0  0  0  0  0  0  0  0  0  0
  1  8  1  0  0  0  0
  1  3  1  0  0  0  0
  2  1  1  0  0  0  0
  4  5  1  0  0  0  0
  4 14  1  0  0  0  0
  4  1  1  0  0  0  0
  6  4  1  0  0  0  0
  8 11  1  0  0  0  0
  8 10  1  0  0  0  0
  9  8  1  0  0  0  0
 11 12  1  0  0  0  0
 11 13  1  0  0  0  0
 14 11  1  0  0  0  0
M  END
$$$$
Title Card Required
 OpenBabel06272217483D

 14 13  0  0  0  0  0  0  0  0999 V2000
   -1.9619    0.0668    0.0083 C   0  0  0  0  0  0  0  0  0  0  0  0
   -0.8921    0.4142   -0.3934 H   0  0  0  0  0  0  0  0  0  0  0  0
   -1.8966   -0.3021    1.1081 H   0  0  0  0  0  0  0  0  0  0  0  0
   -2.3308   -1.0854   -0.8260 C   0  0  0  0  0  0  0  0  0  0  0  0
   -1.6206   -2.0005   -0.6336 H   0  0  0  0  0  0  0  0  0  0  0  0
   -2.0943   -0.7707   -1.8308 H   0  0  0  0  0  0  0  0  0  0  0  0
    2.8206    0.2188    0.0767 Br  0  0  0  0  0 15  0  0  0  0  0  0
   -3.1324    1.0595    0.2342 C   0  0  0  0  0  0  0  0  0  0  0  0
   -3.7512    1.6969   -0.3764 H   0  0  0  0  0  0  0  0  0  0  0  0
   -3.0147    1.7367    1.1755 H   0  0  0  0  0  0  0  0  0  0  0  0
   -4.1345   -0.0391    0.6099 C   0  0  0  0  0  0  0  0  0  0  0  0
   -5.0933    0.3589    0.6083 H   0  0  0  0  0  0  0  0  0  0  0  0
   -3.9378   -0.3616    1.7392 H   0  0  0  0  0  0  0  0  0  0  0  0
   -3.8391   -1.1296   -0.4861 O   0  0  0  0  0  0  0  0  0  0  0  0
  1  8  1  0  0  0  0
  1  3  1  0  0  0  0
  2  1  1  0  0  0  0
  4  5  1  0  0  0  0
  4 14  1  0  0  0  0
  4  1  1  0  0  0  0
  6  4  1  0  0  0  0
  8 11  1  0  0  0  0
  8 10  1  0  0  0  0
  9  8  1  0  0  0  0
 11 13  1  0  0  0  0
 12 11  1  0  0  0  0
 14 11  1  0  0  0  0
M  END
$$$$
Title Card Required
 OpenBabel06272217483D

 14 13  0  0  0  0  0  0  0  0999 V2000
   -1.9576    0.0476    0.0147 C   0  0  0  0  0  0  0  0  0  0  0  0
   -0.8853    0.4718   -0.4053 H   0  0  0  0  0  0  0  0  0  0  0  0
   -1.8995   -0.2870    1.1369 H   0  0  0  0  0  0  0  0  0  0  0  0
   -2.3349   -1.0797   -0.8313 C   0  0  0  0  0  0  0  0  0  0  0  0
   -1.5553   -2.0182   -0.6258 H   0  0  0  0  0  0  0  0  0  0  0  0
   -2.1037   -0.7335   -1.8395 H   0  0  0  0  0  0  0  0  0  0  0  0
    2.8224    0.2196    0.0769 Br  0  0  0  0  0 15  0  0  0  0  0  0
   -3.1506    1.0453    0.2338 C   0  0  0  0  0  0  0  0  0  0  0  0
   -3.7654    1.6785   -0.4455 H   0  0  0  0  0  0  0  0  0  0  0  0
   -2.9735    1.6609    1.2213 H   0  0  0  0  0  0  0  0  0  0  0  0
   -4.1221   -0.0084    0.6240 C   0  0  0  0  0  0  0  0  0  0  0  0
   -5.0515    0.3338    0.5717 H   0  0  0  0  0  0  0  0  0  0  0  0
   -3.9373   -0.3057    1.7926 H   0  0  0  0  0  0  0  0  0  0  0  0
   -3.8520   -1.1377   -0.4988 O   0  0  0  0  0  0  0  0  0  0  0  0
  1  8  1  0  0  0  0
  1  3  1  0  0  0  0
  2  1  1  0  0  0  0
  4  5  1  0  0  0  0
  4 14  1  0  0  0  0
  4  1  1  0  0  0  0
  6  4  1  0  0  0  0
  8 11  1  0  0  0  0
  8 10  1  0  0  0  0
  9  8  1  0  0  0  0
 11 13  1  0  0  0  0
 12 11  1  0  0  0  0
 14 11  1  0  0  0  0
M  END
$$$$
Title Card Required
 OpenBabel06272217483D

 14 13  0  0  0  0  0  0  0  0999 V2000
   -1.9470    0.0320    0.0242 C   0  0  0  0  0  0  0  0  0  0  0  0
   -0.9237    0.5193   -0.3876 H   0  0  0  0  0  0  0  0  0  0  0  0
   -1.8855   -0.2650    1.1306 H   0  0  0  0  0  0  0  0  0  0  0  0
   -2.3411   -1.0754   -0.8351 C   0  0  0  0  0  0  0  0  0  0  0  0
   -1.5382   -2.0008   -0.6227 H   0  0  0  0  0  0  0  0  0  0  0  0
   -2.1310   -0.7035   -1.8626 H   0  0  0  0  0  0  0  0  0  0  0  0
    2.8243    0.2205    0.0771 Br  0  0  0  0  0 15  0  0  0  0  0  0
   -3.1696    1.0307    0.2367 C   0  0  0  0  0  0  0  0  0  0  0  0
   -3.7522    1.6569   -0.5318 H   0  0  0  0  0  0  0  0  0  0  0  0
   -2.9286    1.5677    1.2322 H   0  0  0  0  0  0  0  0  0  0  0  0
   -4.1018    0.0177    0.6401 C   0  0  0  0  0  0  0  0  0  0  0  0
   -5.0925    0.3207    0.5189 H   0  0  0  0  0  0  0  0  0  0  0  0
   -3.9432   -0.2507    1.7953 H   0  0  0  0  0  0  0  0  0  0  0  0
   -3.8641   -1.1449   -0.5101 O   0  0  0  0  0  0  0  0  0  0  0  0
  1  8  1  0  0  0  0
  1  3  1  0  0  0  0
  2  1  1  0  0  0  0
  4  5  1  0  0  0  0
  4 14  1  0  0  0  0
  4  1  1  0  0  0  0
  6  4  1  0  0  0  0
  8 11  1  0  0  0  0
  8 10  1  0  0  0  0
  9  8  1  0  0  0  0
 11 13  1  0  0  0  0
 12 11  1  0  0  0  0
 14 11  1  0  0  0  0
M  END
$$$$
Title Card Required
 OpenBabel06272217483D

 14 13  0  0  0  0  0  0  0  0999 V2000
   -1.9331    0.0229    0.0350 C   0  0  0  0  0  0  0  0  0  0  0  0
   -0.9946    0.5472   -0.3464 H   0  0  0  0  0  0  0  0  0  0  0  0
   -1.8556   -0.2454    1.0987 H   0  0  0  0  0  0  0  0  0  0  0  0
   -2.3483   -1.0731   -0.8376 C   0  0  0  0  0  0  0  0  0  0  0  0
   -1.5732   -1.9534   -0.6281 H   0  0  0  0  0  0  0  0  0  0  0  0
   -2.1715   -0.6888   -1.8850 H   0  0  0  0  0  0  0  0  0  0  0  0
    2.8260    0.2213    0.0773 Br  0  0  0  0  0 15  0  0  0  0  0  0
   -3.1853    1.0190    0.2404 C   0  0  0  0  0  0  0  0  0  0  0  0
   -3.7066    1.6281   -0.6047 H   0  0  0  0  0  0  0  0  0  0  0  0
   -2.8900    1.4840    1.2090 H   0  0  0  0  0  0  0  0  0  0  0  0
   -4.0820    0.0353    0.6554 C   0  0  0  0  0  0  0  0  0  0  0  0
   -5.1723    0.3103    0.4637 H   0  0  0  0  0  0  0  0  0  0  0  0
   -3.9532   -0.2081    1.7538 H   0  0  0  0  0  0  0  0  0  0  0  0
   -3.8730   -1.1501   -0.5183 O   0  0  0  0  0  0  0  0  0  0  0  0
  1  8  1  0  0  0  0
  1  3  1  0  0  0  0
  2  1  1  0  0  0  0
  4  5  1  0  0  0  0
  4 14  1  0  0  0  0
  4  1  1  0  0  0  0
  6  4  1  0  0  0  0
  8 11  1  0  0  0  0
  8 10  1  0  0  0  0
  9  8  1  0  0  0  0
 11 13  1  0  0  0  0
 12 11  1  0  0  0  0
 14 11  1  0  0  0  0
M  END
$$$$
Title Card Required
 OpenBabel06272217483D

 14 13  0  0  0  0  0  0  0  0999 V2000
   -1.9181    0.0193    0.0463 C   0  0  0  0  0  0  0  0  0  0  0  0
   -1.0770    0.5652   -0.2920 H   0  0  0  0  0  0  0  0  0  0  0  0
   -1.8097   -0.2356    1.0635 H   0  0  0  0  0  0  0  0  0  0  0  0
   -2.3573   -1.0714   -0.8402 C   0  0  0  0  0  0  0  0  0  0  0  0
   -1.6481   -1.8907   -0.6407 H   0  0  0  0  0  0  0  0  0  0  0  0
   -2.2233   -0.6889   -1.8984 H   0  0  0  0  0  0  0  0  0  0  0  0
    2.8277    0.2221    0.0775 Br  0  0  0  0  0 15  0  0  0  0  0  0
   -3.1970    1.0095    0.2426 C   0  0  0  0  0  0  0  0  0  0  0  0
   -3.6303    1.5895   -0.6570 H   0  0  0  0  0  0  0  0  0  0  0  0
   -2.8542    1.4225    1.1682 H   0  0  0  0  0  0  0  0  0  0  0  0
   -4.0685    0.0467    0.6684 C   0  0  0  0  0  0  0  0  0  0  0  0
   -5.2351    0.2891    0.4149 H   0  0  0  0  0  0  0  0  0  0  0  0
   -3.9639   -0.1815    1.6933 H   0  0  0  0  0  0  0  0  0  0  0  0
   -3.8793   -1.1538   -0.5241 O   0  0  0  0  0  0  0  0  0  0  0  0
  1  8  1  0  0  0  0
  1  3  1  0  0  0  0
  2  1  1  0  0  0  0
  4  5  1  0  0  0  0
  4 14  1  0  0  0  0
  4  1  1  0  0  0  0
  6  4  1  0  0  0  0
  8 11  1  0  0  0  0
  8 10  1  0  0  0  0
  9  8  1  0  0  0  0
 11 13  1  0  0  0  0
 12 11  1  0  0  0  0
 14 11  1  0  0  0  0
M  END
$$$$
Title Card Required
 OpenBabel06272217483D

 14 13  0  0  0  0  0  0  0  0999 V2000
   -1.9044    0.0197    0.0581 C   0  0  0  0  0  0  0  0  0  0  0  0
   -1.1386    0.5988   -0.2373 H   0  0  0  0  0  0  0  0  0  0  0  0
   -1.7383   -0.2470    1.0513 H   0  0  0  0  0  0  0  0  0  0  0  0
   -2.3723   -1.0668   -0.8438 C   0  0  0  0  0  0  0  0  0  0  0  0
   -1.7516   -1.8414   -0.6571 H   0  0  0  0  0  0  0  0  0  0  0  0
   -2.2906   -0.7058   -1.8984 H   0  0  0  0  0  0  0  0  0  0  0  0
    2.8295    0.2231    0.0778 Br  0  0  0  0  0 15  0  0  0  0  0  0
   -3.2036    1.0013    0.2407 C   0  0  0  0  0  0  0  0  0  0  0  0
   -3.5147    1.5379   -0.6878 H   0  0  0  0  0  0  0  0  0  0  0  0
   -2.8112    1.4003    1.1264 H   0  0  0  0  0  0  0  0  0  0  0  0
   -4.0661    0.0521    0.6755 C   0  0  0  0  0  0  0  0  0  0  0  0
   -5.2521    0.2497    0.3788 H   0  0  0  0  0  0  0  0  0  0  0  0
   -3.9711   -0.1832    1.6531 H   0  0  0  0  0  0  0  0  0  0  0  0
   -3.8826   -1.1563   -0.5274 O   0  0  0  0  0  0  0  0  0  0  0  0
  1  8  1  0  0  0  0
  1  3  1  0  0  0  0
  2  1  1  0  0  0  0
  4  5  1  0  0  0  0
  4 14  1  0  0  0  0
  4  1  1  0  0  0  0
  6  4  1  0  0  0  0
  8 11  1  0  0  0  0
  8 10  1  0  0  0  0
  9  8  1  0  0  0  0
 11 13  1  0  0  0  0
 12 11  1  0  0  0  0
 14 11  1  0  0  0  0
M  END
$$$$
Title Card Required
 OpenBabel06272217483D

 14 13  0  0  0  0  0  0  0  0999 V2000
   -1.8985    0.0223    0.0682 C   0  0  0  0  0  0  0  0  0  0  0  0
   -1.1289    0.6681   -0.2125 H   0  0  0  0  0  0  0  0  0  0  0  0
   -1.6548   -0.2839    1.0772 H   0  0  0  0  0  0  0  0  0  0  0  0
   -2.3947   -1.0555   -0.8485 C   0  0  0  0  0  0  0  0  0  0  0  0
   -1.8256   -1.8714   -0.6631 H   0  0  0  0  0  0  0  0  0  0  0  0
   -2.3564   -0.7333   -1.8893 H   0  0  0  0  0  0  0  0  0  0  0  0
    2.8313    0.2240    0.0780 Br  0  0  0  0  0 15  0  0  0  0  0  0
   -3.2014    0.9951    0.2344 C   0  0  0  0  0  0  0  0  0  0  0  0
   -3.3900    1.4909   -0.6991 H   0  0  0  0  0  0  0  0  0  0  0  0
   -2.7649    1.4370    1.1059 H   0  0  0  0  0  0  0  0  0  0  0  0
   -4.0784    0.0496    0.6710 C   0  0  0  0  0  0  0  0  0  0  0  0
   -5.2099    0.2023    0.3693 H   0  0  0  0  0  0  0  0  0  0  0  0
   -3.9692   -0.2245    1.6808 H   0  0  0  0  0  0  0  0  0  0  0  0
   -3.8820   -1.1568   -0.5271 O   0  0  0  0  0  0  0  0  0  0  0  0
  1  8  1  0  0  0  0
  1  3  1  0  0  0  0
  2  1  1  0  0  0  0
  4  5  1  0  0  0  0
  4 14  1  0  0  0  0
  4  1  1  0  0  0  0
  6  4  1  0  0  0  0
  8 11  1  0  0  0  0
  8 10  1  0  0  0  0
  9  8  1  0  0  0  0
 11 13  1  0  0  0  0
 12 11  1  0  0  0  0
 14 11  1  0  0  0  0
M  END
$$$$
Title Card Required
 OpenBabel06272217483D

 14 13  0  0  0  0  0  0  0  0999 V2000
   -1.8973    0.0260    0.0763 C   0  0  0  0  0  0  0  0  0  0  0  0
   -1.0875    0.7374   -0.2095 H   0  0  0  0  0  0  0  0  0  0  0  0
   -1.5837   -0.3258    1.1063 H   0  0  0  0  0  0  0  0  0  0  0  0
   -2.4184   -1.0420   -0.8521 C   0  0  0  0  0  0  0  0  0  0  0  0
   -1.8645   -1.9517   -0.6612 H   0  0  0  0  0  0  0  0  0  0  0  0
   -2.4059   -0.7578   -1.8860 H   0  0  0  0  0  0  0  0  0  0  0  0
    2.8327    0.2247    0.0782 Br  0  0  0  0  0 15  0  0  0  0  0  0
   -3.1925    0.9906    0.2288 C   0  0  0  0  0  0  0  0  0  0  0  0
   -3.2903    1.4639   -0.7110 H   0  0  0  0  0  0  0  0  0  0  0  0
   -2.7303    1.5014    1.0957 H   0  0  0  0  0  0  0  0  0  0  0  0
   -4.0975    0.0416    0.6611 C   0  0  0  0  0  0  0  0  0  0  0  0
   -5.1472    0.1624    0.3784 H   0  0  0  0  0  0  0  0  0  0  0  0
   -3.9634   -0.2780    1.7284 H   0  0  0  0  0  0  0  0  0  0  0  0
   -3.8789   -1.1557   -0.5243 O   0  0  0  0  0  0  0  0  0  0  0  0
  1  8  1  0  0  0  0
  1  3  1  0  0  0  0
  2  1  1  0  0  0  0
  4  5  1  0  0  0  0
  4 14  1  0  0  0  0
  4  1  1  0  0  0  0
  6  4  1  0  0  0  0
  8 11  1  0  0  0  0
  8 10  1  0  0  0  0
  9  8  1  0  0  0  0
 11 13  1  0  0  0  0
 12 11  1  0  0  0  0
 14 11  1  0  0  0  0
M  END
$$$$
Title Card Required
 OpenBabel06272217483D

 14 13  0  0  0  0  0  0  0  0999 V2000
   -1.8963    0.0318    0.0846 C   0  0  0  0  0  0  0  0  0  0  0  0
   -1.0459    0.7913   -0.2128 H   0  0  0  0  0  0  0  0  0  0  0  0
   -1.5211   -0.3675    1.1213 H   0  0  0  0  0  0  0  0  0  0  0  0
   -2.4435   -1.0286   -0.8540 C   0  0  0  0  0  0  0  0  0  0  0  0
   -1.9017   -2.0411   -0.6610 H   0  0  0  0  0  0  0  0  0  0  0  0
   -2.4471   -0.7787   -1.8946 H   0  0  0  0  0  0  0  0  0  0  0  0
    2.8341    0.2254    0.0783 Br  0  0  0  0  0 15  0  0  0  0  0  0
   -3.1776    0.9867    0.2253 C   0  0  0  0  0  0  0  0  0  0  0  0
   -3.2026    1.4514   -0.7336 H   0  0  0  0  0  0  0  0  0  0  0  0
   -2.7085    1.5800    1.0792 H   0  0  0  0  0  0  0  0  0  0  0  0
   -4.1197    0.0284    0.6494 C   0  0  0  0  0  0  0  0  0  0  0  0
   -5.0920    0.1283    0.3943 H   0  0  0  0  0  0  0  0  0  0  0  0
   -3.9581   -0.3334    1.7622 H   0  0  0  0  0  0  0  0  0  0  0  0
   -3.8743   -1.1531   -0.5194 O   0  0  0  0  0  0  0  0  0  0  0  0
  1  8  1  0  0  0  0
  1  3  1  0  0  0  0
  2  1  1  0  0  0  0
  4  5  1  0  0  0  0
  4 14  1  0  0  0  0
  4  1  1  0  0  0  0
  6  4  1  0  0  0  0
  8 11  1  0  0  0  0
  8 10  1  0  0  0  0
  9  8  1  0  0  0  0
 11 13  1  0  0  0  0
 12 11  1  0  0  0  0
 14 11  1  0  0  0  0
M  END
$$$$
Title Card Required
 OpenBabel06272217483D

 14 13  0  0  0  0  0  0  0  0999 V2000
   -1.8934    0.0404    0.0940 C   0  0  0  0  0  0  0  0  0  0  0  0
   -1.0170    0.8190   -0.2172 H   0  0  0  0  0  0  0  0  0  0  0  0
   -1.4677   -0.4060    1.1121 H   0  0  0  0  0  0  0  0  0  0  0  0
   -2.4709   -1.0169   -0.8539 C   0  0  0  0  0  0  0  0  0  0  0  0
   -1.9538   -2.1153   -0.6682 H   0  0  0  0  0  0  0  0  0  0  0  0
   -2.4823   -0.7961   -1.9174 H   0  0  0  0  0  0  0  0  0  0  0  0
    2.8355    0.2262    0.0785 Br  0  0  0  0  0 15  0  0  0  0  0  0
   -3.1555    0.9830    0.2246 C   0  0  0  0  0  0  0  0  0  0  0  0
   -3.1220    1.4495   -0.7669 H   0  0  0  0  0  0  0  0  0  0  0  0
   -2.7046    1.6683    1.0465 H   0  0  0  0  0  0  0  0  0  0  0  0
   -4.1421    0.0086    0.6368 C   0  0  0  0  0  0  0  0  0  0  0  0
   -5.0860    0.1032    0.4069 H   0  0  0  0  0  0  0  0  0  0  0  0
   -3.9560   -0.3870    1.7658 H   0  0  0  0  0  0  0  0  0  0  0  0
   -3.8680   -1.1485   -0.5116 O   0  0  0  0  0  0  0  0  0  0  0  0
  1  8  1  0  0  0  0
  1  3  1  0  0  0  0
  2  1  1  0  0  0  0
  4  5  1  0  0  0  0
  4 14  1  0  0  0  0
  4  1  1  0  0  0  0
  6  4  1  0  0  0  0
  8 11  1  0  0  0  0
  8 10  1  0  0  0  0
  9  8  1  0  0  0  0
 11 13  1  0  0  0  0
 12 11  1  0  0  0  0
 14 11  1  0  0  0  0
M  END
$$$$
Title Card Required
 OpenBabel06272217483D

 14 13  0  0  0  0  0  0  0  0999 V2000
   -1.8880    0.0511    0.1038 C   0  0  0  0  0  0  0  0  0  0  0  0
   -1.0102    0.8107   -0.2203 H   0  0  0  0  0  0  0  0  0  0  0  0
   -1.4325   -0.4335    1.0756 H   0  0  0  0  0  0  0  0  0  0  0  0
   -2.4974   -1.0094   -0.8520 C   0  0  0  0  0  0  0  0  0  0  0  0
   -2.0194   -2.1505   -0.6845 H   0  0  0  0  0  0  0  0  0  0  0  0
   -2.5073   -0.8085   -1.9461 H   0  0  0  0  0  0  0  0  0  0  0  0
    2.8368    0.2270    0.0787 Br  0  0  0  0  0 15  0  0  0  0  0  0
   -3.1286    0.9805    0.2267 C   0  0  0  0  0  0  0  0  0  0  0  0
   -3.0588    1.4516   -0.7977 H   0  0  0  0  0  0  0  0  0  0  0  0
   -2.7230    1.7496    0.9974 H   0  0  0  0  0  0  0  0  0  0  0  0
   -4.1591   -0.0163    0.6249 C   0  0  0  0  0  0  0  0  0  0  0  0
   -5.1563    0.0933    0.4091 H   0  0  0  0  0  0  0  0  0  0  0  0
   -3.9598   -0.4296    1.7311 H   0  0  0  0  0  0  0  0  0  0  0  0
   -3.8614   -1.1421   -0.5014 O   0  0  0  0  0  0  0  0  0  0  0  0
  1  8  1  0  0  0  0
  1  3  1  0  0  0  0
  2  1  1  0  0  0  0
  4  5  1  0  0  0  0
  4 14  1  0  0  0  0
  4  1  1  0  0  0  0
  6  4  1  0  0  0  0
  8 11  1  0  0  0  0
  8 10  1  0  0  0  0
  9  8  1  0  0  0  0
 11 13  1  0  0  0  0
 12 11  1  0  0  0  0
 14 11  1  0  0  0  0
M  END
$$$$
Title Card Required
 OpenBabel06272217483D

 14 13  0  0  0  0  0  0  0  0999 V2000
   -1.8805    0.0619    0.1126 C   0  0  0  0  0  0  0  0  0  0  0  0
   -1.0221    0.7737   -0.2226 H   0  0  0  0  0  0  0  0  0  0  0  0
   -1.4160   -0.4485    1.0232 H   0  0  0  0  0  0  0  0  0  0  0  0
   -2.5205   -1.0061   -0.8497 C   0  0  0  0  0  0  0  0  0  0  0  0
   -2.0887   -2.1456   -0.7066 H   0  0  0  0  0  0  0  0  0  0  0  0
   -2.5217   -0.8161   -1.9682 H   0  0  0  0  0  0  0  0  0  0  0  0
    2.8380    0.2277    0.0789 Br  0  0  0  0  0 15  0  0  0  0  0  0
   -3.1006    0.9794    0.2302 C   0  0  0  0  0  0  0  0  0  0  0  0
   -3.0175    1.4509   -0.8151 H   0  0  0  0  0  0  0  0  0  0  0  0
   -2.7585    1.8137    0.9407 H   0  0  0  0  0  0  0  0  0  0  0  0
   -4.1716   -0.0426    0.6133 C   0  0  0  0  0  0  0  0  0  0  0  0
   -5.2579    0.0950    0.4086 H   0  0  0  0  0  0  0  0  0  0  0  0
   -3.9686   -0.4596    1.6701 H   0  0  0  0  0  0  0  0  0  0  0  0
   -3.8557   -1.1344   -0.4897 O   0  0  0  0  0  0  0  0  0  0  0  0
  1  8  1  0  0  0  0
  1  3  1  0  0  0  0
  2  1  1  0  0  0  0
  4  5  1  0  0  0  0
  4 14  1  0  0  0  0
  4  1  1  0  0  0  0
  6  4  1  0  0  0  0
  8 11  1  0  0  0  0
  8 10  1  0  0  0  0
  9  8  1  0  0  0  0
 11 13  1  0  0  0  0
 12 11  1  0  0  0  0
 14 11  1  0  0  0  0
M  END
$$$$
Title Card Required
 OpenBabel06272217483D

 14 13  0  0  0  0  0  0  0  0999 V2000
   -1.8719    0.0723    0.1200 C   0  0  0  0  0  0  0  0  0  0  0  0
   -1.0435    0.7190   -0.2264 H   0  0  0  0  0  0  0  0  0  0  0  0
   -1.4123   -0.4559    0.9661 H   0  0  0  0  0  0  0  0  0  0  0  0
   -2.5408   -1.0058   -0.8476 C   0  0  0  0  0  0  0  0  0  0  0  0
   -2.1576   -2.1105   -0.7319 H   0  0  0  0  0  0  0  0  0  0  0  0
   -2.5287   -0.8200   -1.9790 H   0  0  0  0  0  0  0  0  0  0  0  0
    2.8392    0.2283    0.0790 Br  0  0  0  0  0 15  0  0  0  0  0  0
   -3.0723    0.9795    0.2343 C   0  0  0  0  0  0  0  0  0  0  0  0
   -2.9945    1.4447   -0.8180 H   0  0  0  0  0  0  0  0  0  0  0  0
   -2.8057    1.8636    0.8818 H   0  0  0  0  0  0  0  0  0  0  0  0
   -4.1829   -0.0693    0.6003 C   0  0  0  0  0  0  0  0  0  0  0  0
   -5.3491    0.1015    0.4125 H   0  0  0  0  0  0  0  0  0  0  0  0
   -3.9807   -0.4824    1.5964 H   0  0  0  0  0  0  0  0  0  0  0  0
   -3.8513   -1.1255   -0.4765 O   0  0  0  0  0  0  0  0  0  0  0  0
  1  8  1  0  0  0  0
  1  3  1  0  0  0  0
  2  1  1  0  0  0  0
  4  5  1  0  0  0  0
  4 14  1  0  0  0  0
  4  1  1  0  0  0  0
  6  4  1  0  0  0  0
  8 11  1  0  0  0  0
  8 10  1  0  0  0  0
  9  8  1  0  0  0  0
 11 13  1  0  0  0  0
 12 11  1  0  0  0  0
 14 11  1  0  0  0  0
M  END
$$$$
Title Card Required
 OpenBabel06272217483D

 14 13  0  0  0  0  0  0  0  0999 V2000
   -1.8627    0.0819    0.1260 C   0  0  0  0  0  0  0  0  0  0  0  0
   -1.0634    0.6557   -0.2367 H   0  0  0  0  0  0  0  0  0  0  0  0
   -1.4151   -0.4619    0.9146 H   0  0  0  0  0  0  0  0  0  0  0  0
   -2.5590   -1.0073   -0.8464 C   0  0  0  0  0  0  0  0  0  0  0  0
   -2.2234   -2.0545   -0.7591 H   0  0  0  0  0  0  0  0  0  0  0  0
   -2.5305   -0.8198   -1.9769 H   0  0  0  0  0  0  0  0  0  0  0  0
    2.8403    0.2290    0.0792 Br  0  0  0  0  0 15  0  0  0  0  0  0
   -3.0435    0.9806    0.2387 C   0  0  0  0  0  0  0  0  0  0  0  0
   -2.9874    1.4315   -0.8081 H   0  0  0  0  0  0  0  0  0  0  0  0
   -2.8626    1.9042    0.8236 H   0  0  0  0  0  0  0  0  0  0  0  0
   -4.1952   -0.0965    0.5838 C   0  0  0  0  0  0  0  0  0  0  0  0
   -5.4135    0.1093    0.4228 H   0  0  0  0  0  0  0  0  0  0  0  0
   -3.9943   -0.5056    1.5234 H   0  0  0  0  0  0  0  0  0  0  0  0
   -3.8486   -1.1152   -0.4612 O   0  0  0  0  0  0  0  0  0  0  0  0
  1  8  1  0  0  0  0
  1  3  1  0  0  0  0
  2  1  1  0  0  0  0
  4  5  1  0  0  0  0
  4 14  1  0  0  0  0
  4  1  1  0  0  0  0
  6  4  1  0  0  0  0
  8 11  1  0  0  0  0
  8 10  1  0  0  0  0
  9  8  1  0  0  0  0
 11 13  1  0  0  0  0
 12 11  1  0  0  0  0
 14 11  1  0  0  0  0
M  END
$$$$
Title Card Required
 OpenBabel06272217483D

 14 13  0  0  0  0  0  0  0  0999 V2000
   -1.8543    0.0901    0.1301 C   0  0  0  0  0  0  0  0  0  0  0  0
   -1.0649    0.5945   -0.2634 H   0  0  0  0  0  0  0  0  0  0  0  0
   -1.4186   -0.4745    0.8818 H   0  0  0  0  0  0  0  0  0  0  0  0
   -2.5759   -1.0090   -0.8461 C   0  0  0  0  0  0  0  0  0  0  0  0
   -2.2793   -1.9934   -0.7864 H   0  0  0  0  0  0  0  0  0  0  0  0
   -2.5286   -0.8138   -1.9614 H   0  0  0  0  0  0  0  0  0  0  0  0
    2.8414    0.2297    0.0793 Br  0  0  0  0  0 15  0  0  0  0  0  0
   -3.0137    0.9824    0.2435 C   0  0  0  0  0  0  0  0  0  0  0  0
   -2.9962    1.4101   -0.7878 H   0  0  0  0  0  0  0  0  0  0  0  0
   -2.9290    1.9397    0.7699 H   0  0  0  0  0  0  0  0  0  0  0  0
   -4.2096   -0.1242    0.5611 C   0  0  0  0  0  0  0  0  0  0  0  0
   -5.4419    0.1161    0.4400 H   0  0  0  0  0  0  0  0  0  0  0  0
   -4.0069   -0.5387    1.4700 H   0  0  0  0  0  0  0  0  0  0  0  0
   -3.8485   -1.1030   -0.4430 O   0  0  0  0  0  0  0  0  0  0  0  0
  1  8  1  0  0  0  0
  1  3  1  0  0  0  0
  2  1  1  0  0  0  0
  4  5  1  0  0  0  0
  4 14  1  0  0  0  0
  4  1  1  0  0  0  0
  6  4  1  0  0  0  0
  8 11  1  0  0  0  0
  8 10  1  0  0  0  0
  9  8  1  0  0  0  0
 11 13  1  0  0  0  0
 12 11  1  0  0  0  0
 14 11  1  0  0  0  0
M  END
$$$$
Title Card Required
 OpenBabel06272217483D

 14 13  0  0  0  0  0  0  0  0999 V2000
   -1.8479    0.0956    0.1317 C   0  0  0  0  0  0  0  0  0  0  0  0
   -1.0307    0.5474   -0.3157 H   0  0  0  0  0  0  0  0  0  0  0  0
   -1.4177   -0.4998    0.8818 H   0  0  0  0  0  0  0  0  0  0  0  0
   -2.5912   -1.0080   -0.8471 C   0  0  0  0  0  0  0  0  0  0  0  0
   -2.3090   -1.9622   -0.8092 H   0  0  0  0  0  0  0  0  0  0  0  0
   -2.5245   -0.7989   -1.9355 H   0  0  0  0  0  0  0  0  0  0  0  0
    2.8426    0.2305    0.0795 Br  0  0  0  0  0 15  0  0  0  0  0  0
   -2.9849    0.9847    0.2488 C   0  0  0  0  0  0  0  0  0  0  0  0
   -3.0219    1.3815   -0.7651 H   0  0  0  0  0  0  0  0  0  0  0  0
   -3.0006    1.9711    0.7287 H   0  0  0  0  0  0  0  0  0  0  0  0
   -4.2260   -0.1505    0.5313 C   0  0  0  0  0  0  0  0  0  0  0  0
   -5.4245    0.1197    0.4620 H   0  0  0  0  0  0  0  0  0  0  0  0
   -4.0162   -0.5872    1.4559 H   0  0  0  0  0  0  0  0  0  0  0  0
   -3.8520   -1.0894   -0.4222 O   0  0  0  0  0  0  0  0  0  0  0  0
  1  8  1  0  0  0  0
  1  3  1  0  0  0  0
  2  1  1  0  0  0  0
  4  5  1  0  0  0  0
  4 14  1  0  0  0  0
  4  1  1  0  0  0  0
  6  4  1  0  0  0  0
  8 11  1  0  0  0  0
  8 10  1  0  0  0  0
  9  8  1  0  0  0  0
 11 13  1  0  0  0  0
 12 11  1  0  0  0  0
 14 11  1  0  0  0  0
M  END
$$$$
Title Card Required
 OpenBabel06272217483D

 14 13  0  0  0  0  0  0  0  0999 V2000
   -1.8429    0.0973    0.1306 C   0  0  0  0  0  0  0  0  0  0  0  0
   -0.9709    0.5143   -0.3847 H   0  0  0  0  0  0  0  0  0  0  0  0
   -1.4142   -0.5312    0.9109 H   0  0  0  0  0  0  0  0  0  0  0  0
   -2.6037   -1.0025   -0.8486 C   0  0  0  0  0  0  0  0  0  0  0  0
   -2.3027   -1.9856   -0.8237 H   0  0  0  0  0  0  0  0  0  0  0  0
   -2.5209   -0.7738   -1.9093 H   0  0  0  0  0  0  0  0  0  0  0  0
    2.8438    0.2313    0.0797 Br  0  0  0  0  0 15  0  0  0  0  0  0
   -2.9607    0.9875    0.2546 C   0  0  0  0  0  0  0  0  0  0  0  0
   -3.0603    1.3511   -0.7525 H   0  0  0  0  0  0  0  0  0  0  0  0
   -3.0670    1.9948    0.7065 H   0  0  0  0  0  0  0  0  0  0  0  0
   -4.2423   -0.1727    0.4995 C   0  0  0  0  0  0  0  0  0  0  0  0
   -5.3671    0.1197    0.4827 H   0  0  0  0  0  0  0  0  0  0  0  0
   -4.0246   -0.6408    1.4745 H   0  0  0  0  0  0  0  0  0  0  0  0
   -3.8590   -1.0763   -0.4016 O   0  0  0  0  0  0  0  0  0  0  0  0
  1  8  1  0  0  0  0
  1  3  1  0  0  0  0
  2  1  1  0  0  0  0
  4  5  1  0  0  0  0
  4 14  1  0  0  0  0
  4  1  1  0  0  0  0
  6  4  1  0  0  0  0
  8 11  1  0  0  0  0
  8 10  1  0  0  0  0
  9  8  1  0  0  0  0
 11 13  1  0  0  0  0
 12 11  1  0  0  0  0
 14 11  1  0  0  0  0
M  END
$$$$
Title Card Required
 OpenBabel06272217483D

 14 13  0  0  0  0  0  0  0  0999 V2000
   -1.8362    0.0951    0.1269 C   0  0  0  0  0  0  0  0  0  0  0  0
   -0.9087    0.4823   -0.4558 H   0  0  0  0  0  0  0  0  0  0  0  0
   -1.4142   -0.5571    0.9535 H   0  0  0  0  0  0  0  0  0  0  0  0
   -2.6134   -0.9941   -0.8496 C   0  0  0  0  0  0  0  0  0  0  0  0
   -2.2690   -2.0438   -0.8311 H   0  0  0  0  0  0  0  0  0  0  0  0
   -2.5196   -0.7369   -1.8911 H   0  0  0  0  0  0  0  0  0  0  0  0
    2.8449    0.2320    0.0799 Br  0  0  0  0  0 15  0  0  0  0  0  0
   -2.9416    0.9911    0.2612 C   0  0  0  0  0  0  0  0  0  0  0  0
   -3.1089    1.3207   -0.7556 H   0  0  0  0  0  0  0  0  0  0  0  0
   -3.1258    2.0077    0.7015 H   0  0  0  0  0  0  0  0  0  0  0  0
   -4.2571   -0.1911    0.4692 C   0  0  0  0  0  0  0  0  0  0  0  0
   -5.2869    0.1188    0.4975 H   0  0  0  0  0  0  0  0  0  0  0  0
   -4.0378   -0.6876    1.5030 H   0  0  0  0  0  0  0  0  0  0  0  0
   -3.8692   -1.0646   -0.3823 O   0  0  0  0  0  0  0  0  0  0  0  0
  1  8  1  0  0  0  0
  1  3  1  0  0  0  0
  2  1  1  0  0  0  0
  4  5  1  0  0  0  0
  4 14  1  0  0  0  0
  4  1  1  0  0  0  0
  6  4  1  0  0  0  0
  8 11  1  0  0  0  0
  8 10  1  0  0  0  0
  9  8  1  0  0  0  0
 11 12  1  0  0  0  0
 11 13  1  0  0  0  0
 14 11  1  0  0  0  0
M  END
$$$$
Title Card Required
 OpenBabel06272217483D

 14 13  0  0  0  0  0  0  0  0999 V2000
   -1.8237    0.0875    0.1198 C   0  0  0  0  0  0  0  0  0  0  0  0
   -0.8593    0.4373   -0.5210 H   0  0  0  0  0  0  0  0  0  0  0  0
   -1.4245   -0.5662    0.9999 H   0  0  0  0  0  0  0  0  0  0  0  0
   -2.6199   -0.9845   -0.8493 C   0  0  0  0  0  0  0  0  0  0  0  0
   -2.2162   -2.1069   -0.8338 H   0  0  0  0  0  0  0  0  0  0  0  0
   -2.5231   -0.6808   -1.8857 H   0  0  0  0  0  0  0  0  0  0  0  0
    2.8462    0.2329    0.0801 Br  0  0  0  0  0 15  0  0  0  0  0  0
   -2.9268    0.9971    0.2695 C   0  0  0  0  0  0  0  0  0  0  0  0
   -3.1727    1.2864   -0.7749 H   0  0  0  0  0  0  0  0  0  0  0  0
   -3.1780    2.0040    0.7145 H   0  0  0  0  0  0  0  0  0  0  0  0
   -4.2691   -0.2074    0.4421 C   0  0  0  0  0  0  0  0  0  0  0  0
   -5.2101    0.1279    0.5022 H   0  0  0  0  0  0  0  0  0  0  0  0
   -4.0638   -0.7202    1.5270 H   0  0  0  0  0  0  0  0  0  0  0  0
   -3.8836   -1.0550   -0.3644 O   0  0  0  0  0  0  0  0  0  0  0  0
  1  8  1  0  0  0  0
  1  3  1  0  0  0  0
  2  1  1  0  0  0  0
  4  5  1  0  0  0  0
  4 14  1  0  0  0  0
  4  1  1  0  0  0  0
  6  4  1  0  0  0  0
  8 11  1  0  0  0  0
  8 10  1  0  0  0  0
  9  8  1  0  0  0  0
 11 12  1  0  0  0  0
 11 13  1  0  0  0  0
 14 11  1  0  0  0  0
M  END
$$$$
Title Card Required
 OpenBabel06272217483D

 14 13  0  0  0  0  0  0  0  0999 V2000
   -1.8004    0.0702    0.1070 C   0  0  0  0  0  0  0  0  0  0  0  0
   -0.8502    0.3661   -0.5586 H   0  0  0  0  0  0  0  0  0  0  0  0
   -1.4546   -0.5360    1.0327 H   0  0  0  0  0  0  0  0  0  0  0  0
   -2.6199   -0.9769   -0.8461 C   0  0  0  0  0  0  0  0  0  0  0  0
   -2.1576   -2.1242   -0.8338 H   0  0  0  0  0  0  0  0  0  0  0  0
   -2.5383   -0.5994   -1.8943 H   0  0  0  0  0  0  0  0  0  0  0  0
    2.8478    0.2341    0.0803 Br  0  0  0  0  0 15  0  0  0  0  0  0
   -2.9203    1.0072    0.2782 C   0  0  0  0  0  0  0  0  0  0  0  0
   -3.2516    1.2444   -0.7995 H   0  0  0  0  0  0  0  0  0  0  0  0
   -3.2114    1.9694    0.7551 H   0  0  0  0  0  0  0  0  0  0  0  0
   -4.2716   -0.2181    0.4275 C   0  0  0  0  0  0  0  0  0  0  0  0
   -5.2152    0.1802    0.4872 H   0  0  0  0  0  0  0  0  0  0  0  0
   -4.1145   -0.7197    1.5295 H   0  0  0  0  0  0  0  0  0  0  0  0
   -3.9028   -1.0529   -0.3534 O   0  0  0  0  0  0  0  0  0  0  0  0
  1  8  1  0  0  0  0
  1  3  1  0  0  0  0
  2  1  1  0  0  0  0
  4  5  1  0  0  0  0
  4 14  1  0  0  0  0
  4  1  1  0  0  0  0
  6  4  1  0  0  0  0
  8 11  1  0  0  0  0
  8 10  1  0  0  0  0
  9  8  1  0  0  0  0
 11 12  1  0  0  0  0
 11 13  1  0  0  0  0
 14 11  1  0  0  0  0
M  END
$$$$
Title Card Required
 OpenBabel06272217483D

 14 13  0  0  0  0  0  0  0  0999 V2000
   -1.7761    0.0496    0.0931 C   0  0  0  0  0  0  0  0  0  0  0  0
   -0.8843    0.2975   -0.5498 H   0  0  0  0  0  0  0  0  0  0  0  0
   -1.4896   -0.4776    1.0344 H   0  0  0  0  0  0  0  0  0  0  0  0
   -2.6124   -0.9747   -0.8420 C   0  0  0  0  0  0  0  0  0  0  0  0
   -2.1280   -2.0681   -0.8354 H   0  0  0  0  0  0  0  0  0  0  0  0
   -2.5618   -0.5328   -1.8958 H   0  0  0  0  0  0  0  0  0  0  0  0
    2.8491    0.2351    0.0805 Br  0  0  0  0  0 15  0  0  0  0  0  0
   -2.9252    1.0160    0.2818 C   0  0  0  0  0  0  0  0  0  0  0  0
   -3.3074    1.2128   -0.7992 H   0  0  0  0  0  0  0  0  0  0  0  0
   -3.2090    1.9224    0.8104 H   0  0  0  0  0  0  0  0  0  0  0  0
   -4.2660   -0.2144    0.4366 C   0  0  0  0  0  0  0  0  0  0  0  0
   -5.2901    0.2557    0.4522 H   0  0  0  0  0  0  0  0  0  0  0  0
   -4.1721   -0.6832    1.5074 H   0  0  0  0  0  0  0  0  0  0  0  0
   -3.9179   -1.0625   -0.3569 O   0  0  0  0  0  0  0  0  0  0  0  0
  1  8  1  0  0  0  0
  1  3  1  0  0  0  0
  2  1  1  0  0  0  0
  4  5  1  0  0  0  0
  4 14  1  0  0  0  0
  4  1  1  0  0  0  0
  6  4  1  0  0  0  0
  8 11  1  0  0  0  0
  8 10  1  0  0  0  0
  9  8  1  0  0  0  0
 11 12  1  0  0  0  0
 11 13  1  0  0  0  0
 14 11  1  0  0  0  0
M  END
$$$$
Title Card Required
 OpenBabel06272217483D

 14 13  0  0  0  0  0  0  0  0999 V2000
   -1.7574    0.0303    0.0805 C   0  0  0  0  0  0  0  0  0  0  0  0
   -0.9212    0.2461   -0.5253 H   0  0  0  0  0  0  0  0  0  0  0  0
   -1.5161   -0.4206    1.0271 H   0  0  0  0  0  0  0  0  0  0  0  0
   -2.6020   -0.9748   -0.8387 C   0  0  0  0  0  0  0  0  0  0  0  0
   -2.1197   -1.9833   -0.8398 H   0  0  0  0  0  0  0  0  0  0  0  0
   -2.5865   -0.4897   -1.8821 H   0  0  0  0  0  0  0  0  0  0  0  0
    2.8501    0.2359    0.0807 Br  0  0  0  0  0 15  0  0  0  0  0  0
   -2.9355    1.0209    0.2809 C   0  0  0  0  0  0  0  0  0  0  0  0
   -3.3389    1.1956   -0.7774 H   0  0  0  0  0  0  0  0  0  0  0  0
   -3.1875    1.8841    0.8706 H   0  0  0  0  0  0  0  0  0  0  0  0
   -4.2607   -0.2005    0.4580 C   0  0  0  0  0  0  0  0  0  0  0  0
   -5.3470    0.3164    0.4075 H   0  0  0  0  0  0  0  0  0  0  0  0
   -4.2252   -0.6341    1.4799 H   0  0  0  0  0  0  0  0  0  0  0  0
   -3.9286   -1.0779   -0.3684 O   0  0  0  0  0  0  0  0  0  0  0  0
  1  8  1  0  0  0  0
  1  3  1  0  0  0  0
  2  1  1  0  0  0  0
  4 14  1  0  0  0  0
  4  1  1  0  0  0  0
  5  4  1  0  0  0  0
  6  4  1  0  0  0  0
  8 11  1  0  0  0  0
  8 10  1  0  0  0  0
  9  8  1  0  0  0  0
 11 13  1  0  0  0  0
 12 11  1  0  0  0  0
 14 11  1  0  0  0  0
M  END
$$$$
Title Card Required
 OpenBabel06272217483D

 14 13  0  0  0  0  0  0  0  0999 V2000
   -1.7447    0.0114    0.0686 C   0  0  0  0  0  0  0  0  0  0  0  0
   -0.9356    0.2115   -0.5070 H   0  0  0  0  0  0  0  0  0  0  0  0
   -1.5327   -0.3720    1.0271 H   0  0  0  0  0  0  0  0  0  0  0  0
   -2.5901   -0.9743   -0.8360 C   0  0  0  0  0  0  0  0  0  0  0  0
   -2.1174   -1.8974   -0.8476 H   0  0  0  0  0  0  0  0  0  0  0  0
   -2.6109   -0.4626   -1.8550 H   0  0  0  0  0  0  0  0  0  0  0  0
    2.8511    0.2367    0.0808 Br  0  0  0  0  0 15  0  0  0  0  0  0
   -2.9494    1.0222    0.2769 C   0  0  0  0  0  0  0  0  0  0  0  0
   -3.3564    1.1916   -0.7428 H   0  0  0  0  0  0  0  0  0  0  0  0
   -3.1543    1.8545    0.9381 H   0  0  0  0  0  0  0  0  0  0  0  0
   -4.2566   -0.1793    0.4851 C   0  0  0  0  0  0  0  0  0  0  0  0
   -5.3707    0.3603    0.3567 H   0  0  0  0  0  0  0  0  0  0  0  0
   -4.2765   -0.5818    1.4612 H   0  0  0  0  0  0  0  0  0  0  0  0
   -3.9373   -1.0968   -0.3840 O   0  0  0  0  0  0  0  0  0  0  0  0
  1  8  1  0  0  0  0
  1  3  1  0  0  0  0
  2  1  1  0  0  0  0
  4 14  1  0  0  0  0
  4  1  1  0  0  0  0
  5  4  1  0  0  0  0
  6  4  1  0  0  0  0
  8 11  1  0  0  0  0
  8 10  1  0  0  0  0
  9  8  1  0  0  0  0
 11 13  1  0  0  0  0
 12 11  1  0  0  0  0
 14 11  1  0  0  0  0
M  END
$$$$
Title Card Required
 OpenBabel06272217483D

 14 13  0  0  0  0  0  0  0  0999 V2000
   -1.7392   -0.0074    0.0575 C   0  0  0  0  0  0  0  0  0  0  0  0
   -0.9103    0.1967   -0.5076 H   0  0  0  0  0  0  0  0  0  0  0  0
   -1.5379   -0.3360    1.0429 H   0  0  0  0  0  0  0  0  0  0  0  0
   -2.5785   -0.9707   -0.8335 C   0  0  0  0  0  0  0  0  0  0  0  0
   -2.1048   -1.8425   -0.8608 H   0  0  0  0  0  0  0  0  0  0  0  0
   -2.6329   -0.4482   -1.8183 H   0  0  0  0  0  0  0  0  0  0  0  0
    2.8520    0.2374    0.0809 Br  0  0  0  0  0 15  0  0  0  0  0  0
   -2.9662    1.0198    0.2714 C   0  0  0  0  0  0  0  0  0  0  0  0
   -3.3658    1.2035   -0.7052 H   0  0  0  0  0  0  0  0  0  0  0  0
   -3.1098    1.8295    1.0104 H   0  0  0  0  0  0  0  0  0  0  0  0
   -4.2534   -0.1515    0.5137 C   0  0  0  0  0  0  0  0  0  0  0  0
   -5.3581    0.3880    0.3036 H   0  0  0  0  0  0  0  0  0  0  0  0
   -4.3274   -0.5350    1.4687 H   0  0  0  0  0  0  0  0  0  0  0  0
   -3.9450   -1.1178   -0.4019 O   0  0  0  0  0  0  0  0  0  0  0  0
  1  8  1  0  0  0  0
  1  3  1  0  0  0  0
  2  1  1  0  0  0  0
  4 14  1  0  0  0  0
  4  1  1  0  0  0  0
  5  4  1  0  0  0  0
  6  4  1  0  0  0  0
  8 11  1  0  0  0  0
  8 10  1  0  0  0  0
  9  8  1  0  0  0  0
 11 13  1  0  0  0  0
 12 11  1  0  0  0  0
 14 11  1  0  0  0  0
M  END
$$$$
Title Card Required
 OpenBabel06272217483D

 14 13  0  0  0  0  0  0  0  0999 V2000
   -1.7404   -0.0247    0.0476 C   0  0  0  0  0  0  0  0  0  0  0  0
   -0.8537    0.2001   -0.5227 H   0  0  0  0  0  0  0  0  0  0  0  0
   -1.5329   -0.3144    1.0710 H   0  0  0  0  0  0  0  0  0  0  0  0
   -2.5691   -0.9629   -0.8310 C   0  0  0  0  0  0  0  0  0  0  0  0
   -2.0716   -1.8432   -0.8803 H   0  0  0  0  0  0  0  0  0  0  0  0
   -2.6497   -0.4430   -1.7819 H   0  0  0  0  0  0  0  0  0  0  0  0
    2.8529    0.2381    0.0811 Br  0  0  0  0  0 15  0  0  0  0  0  0
   -2.9842    1.0141    0.2666 C   0  0  0  0  0  0  0  0  0  0  0  0
   -3.3728    1.2339   -0.6799 H   0  0  0  0  0  0  0  0  0  0  0  0
   -3.0573    1.8037    1.0755 H   0  0  0  0  0  0  0  0  0  0  0  0
   -4.2508   -0.1200    0.5388 C   0  0  0  0  0  0  0  0  0  0  0  0
   -5.3121    0.3996    0.2551 H   0  0  0  0  0  0  0  0  0  0  0  0
   -4.3754   -0.5016    1.5096 H   0  0  0  0  0  0  0  0  0  0  0  0
   -3.9515   -1.1385   -0.4194 O   0  0  0  0  0  0  0  0  0  0  0  0
  1  8  1  0  0  0  0
  1  3  1  0  0  0  0
  2  1  1  0  0  0  0
  4 14  1  0  0  0  0
  4  1  1  0  0  0  0
  5  4  1  0  0  0  0
  6  4  1  0  0  0  0
  8 11  1  0  0  0  0
  8 10  1  0  0  0  0
  9  8  1  0  0  0  0
 11 13  1  0  0  0  0
 12 11  1  0  0  0  0
 14 11  1  0  0  0  0
M  END
$$$$
Title Card Required
 OpenBabel06272217483D

 14 13  0  0  0  0  0  0  0  0999 V2000
   -1.7456   -0.0398    0.0390 C   0  0  0  0  0  0  0  0  0  0  0  0
   -0.7914    0.2136   -0.5373 H   0  0  0  0  0  0  0  0  0  0  0  0
   -1.5217   -0.3039    1.0996 H   0  0  0  0  0  0  0  0  0  0  0  0
   -2.5619   -0.9533   -0.8280 C   0  0  0  0  0  0  0  0  0  0  0  0
   -2.0259   -1.8837   -0.9056 H   0  0  0  0  0  0  0  0  0  0  0  0
   -2.6606   -0.4407   -1.7558 H   0  0  0  0  0  0  0  0  0  0  0  0
    2.8537    0.2388    0.0812 Br  0  0  0  0  0 15  0  0  0  0  0  0
   -3.0023    1.0058    0.2644 C   0  0  0  0  0  0  0  0  0  0  0  0
   -3.3810    1.2823   -0.6746 H   0  0  0  0  0  0  0  0  0  0  0  0
   -3.0005    1.7726    1.1249 H   0  0  0  0  0  0  0  0  0  0  0  0
   -4.2483   -0.0875    0.5595 C   0  0  0  0  0  0  0  0  0  0  0  0
   -5.2423    0.3992    0.2149 H   0  0  0  0  0  0  0  0  0  0  0  0
   -4.4187   -0.4781    1.5699 H   0  0  0  0  0  0  0  0  0  0  0  0
   -3.9568   -1.1577   -0.4352 O   0  0  0  0  0  0  0  0  0  0  0  0
  1  8  1  0  0  0  0
  1  3  1  0  0  0  0
  2  1  1  0  0  0  0
  4 14  1  0  0  0  0
  4  1  1  0  0  0  0
  5  4  1  0  0  0  0
  6  4  1  0  0  0  0
  8 11  1  0  0  0  0
  8 10  1  0  0  0  0
  9  8  1  0  0  0  0
 11 13  1  0  0  0  0
 12 11  1  0  0  0  0
 14 11  1  0  0  0  0
M  END
$$$$
Title Card Required
 OpenBabel06272217483D

 14 13  0  0  0  0  0  0  0  0999 V2000
   -1.7529   -0.0527    0.0313 C   0  0  0  0  0  0  0  0  0  0  0  0
   -0.7408    0.2311   -0.5413 H   0  0  0  0  0  0  0  0  0  0  0  0
   -1.5074   -0.3012    1.1192 H   0  0  0  0  0  0  0  0  0  0  0  0
   -2.5554   -0.9446   -0.8243 C   0  0  0  0  0  0  0  0  0  0  0  0
   -1.9810   -1.9364   -0.9360 H   0  0  0  0  0  0  0  0  0  0  0  0
   -2.6661   -0.4365   -1.7460 H   0  0  0  0  0  0  0  0  0  0  0  0
    2.8545    0.2395    0.0813 Br  0  0  0  0  0 15  0  0  0  0  0  0
   -3.0207    0.9951    0.2650 C   0  0  0  0  0  0  0  0  0  0  0  0
   -3.3901    1.3490   -0.6857 H   0  0  0  0  0  0  0  0  0  0  0  0
   -2.9396    1.7327    1.1568 H   0  0  0  0  0  0  0  0  0  0  0  0
   -4.2453   -0.0541    0.5775 C   0  0  0  0  0  0  0  0  0  0  0  0
   -5.1578    0.3928    0.1809 H   0  0  0  0  0  0  0  0  0  0  0  0
   -4.4567   -0.4562    1.6328 H   0  0  0  0  0  0  0  0  0  0  0  0
   -3.9612   -1.1759   -0.4495 O   0  0  0  0  0  0  0  0  0  0  0  0
  1  8  1  0  0  0  0
  1  3  1  0  0  0  0
  2  1  1  0  0  0  0
  4 14  1  0  0  0  0
  4  1  1  0  0  0  0
  5  4  1  0  0  0  0
  6  4  1  0  0  0  0
  8 11  1  0  0  0  0
  8 10  1  0  0  0  0
  9  8  1  0  0  0  0
 11 13  1  0  0  0  0
 12 11  1  0  0  0  0
 14 11  1  0  0  0  0
M  END
$$$$
Title Card Required
 OpenBabel06272217483D

 14 13  0  0  0  0  0  0  0  0999 V2000
   -1.7613   -0.0634    0.0248 C   0  0  0  0  0  0  0  0  0  0  0  0
   -0.7135    0.2494   -0.5283 H   0  0  0  0  0  0  0  0  0  0  0  0
   -1.4923   -0.3058    1.1215 H   0  0  0  0  0  0  0  0  0  0  0  0
   -2.5487   -0.9394   -0.8205 C   0  0  0  0  0  0  0  0  0  0  0  0
   -1.9475   -1.9811   -0.9710 H   0  0  0  0  0  0  0  0  0  0  0  0
   -2.6660   -0.4280   -1.7564 H   0  0  0  0  0  0  0  0  0  0  0  0
    2.8553    0.2403    0.0814 Br  0  0  0  0  0 15  0  0  0  0  0  0
   -3.0405    0.9817    0.2684 C   0  0  0  0  0  0  0  0  0  0  0  0
   -3.3959    1.4340   -0.7021 H   0  0  0  0  0  0  0  0  0  0  0  0
   -2.8736    1.6805    1.1689 H   0  0  0  0  0  0  0  0  0  0  0  0
   -4.2404   -0.0194    0.5948 C   0  0  0  0  0  0  0  0  0  0  0  0
   -5.0727    0.3886    0.1475 H   0  0  0  0  0  0  0  0  0  0  0  0
   -4.4874   -0.4275    1.6844 H   0  0  0  0  0  0  0  0  0  0  0  0
   -3.9647   -1.1936   -0.4626 O   0  0  0  0  0  0  0  0  0  0  0  0
  1  8  1  0  0  0  0
  1  3  1  0  0  0  0
  2  1  1  0  0  0  0
  4 14  1  0  0  0  0
  4  1  1  0  0  0  0
  5  4  1  0  0  0  0
  6  4  1  0  0  0  0
  8 11  1  0  0  0  0
  8 10  1  0  0  0  0
  9  8  1  0  0  0  0
 11 13  1  0  0  0  0
 12 11  1  0  0  0  0
 14 11  1  0  0  0  0
M  END
$$$$
Title Card Required
 OpenBabel06272217483D

 14 13  0  0  0  0  0  0  0  0999 V2000
   -1.7703   -0.0709    0.0202 C   0  0  0  0  0  0  0  0  0  0  0  0
   -0.7228    0.2661   -0.4928 H   0  0  0  0  0  0  0  0  0  0  0  0
   -1.4790   -0.3193    1.0983 H   0  0  0  0  0  0  0  0  0  0  0  0
   -2.5417   -0.9402   -0.8179 C   0  0  0  0  0  0  0  0  0  0  0  0
   -1.9359   -2.0004   -1.0084 H   0  0  0  0  0  0  0  0  0  0  0  0
   -2.6574   -0.4173   -1.7851 H   0  0  0  0  0  0  0  0  0  0  0  0
    2.8561    0.2411    0.0815 Br  0  0  0  0  0 15  0  0  0  0  0  0
   -3.0617    0.9657    0.2739 C   0  0  0  0  0  0  0  0  0  0  0  0
   -3.3912    1.5312   -0.7055 H   0  0  0  0  0  0  0  0  0  0  0  0
   -2.8037    1.6155    1.1584 H   0  0  0  0  0  0  0  0  0  0  0  0
   -4.2316    0.0156    0.6131 C   0  0  0  0  0  0  0  0  0  0  0  0
   -5.0164    0.4005    0.1035 H   0  0  0  0  0  0  0  0  0  0  0  0
   -4.5064   -0.3844    1.7090 H   0  0  0  0  0  0  0  0  0  0  0  0
   -3.9667   -1.2108   -0.4740 O   0  0  0  0  0  0  0  0  0  0  0  0
  1  8  1  0  0  0  0
  1  3  1  0  0  0  0
  2  1  1  0  0  0  0
  4 14  1  0  0  0  0
  4  1  1  0  0  0  0
  5  4  1  0  0  0  0
  6  4  1  0  0  0  0
  8 11  1  0  0  0  0
  8 10  1  0  0  0  0
  9  8  1  0  0  0  0
 11 13  1  0  0  0  0
 12 11  1  0  0  0  0
 14 11  1  0  0  0  0
M  END
$$$$
Title Card Required
 OpenBabel06272217483D

 14 13  0  0  0  0  0  0  0  0999 V2000
   -1.7790   -0.0736    0.0186 C   0  0  0  0  0  0  0  0  0  0  0  0
   -0.7734    0.2791   -0.4392 H   0  0  0  0  0  0  0  0  0  0  0  0
   -1.4710   -0.3429    1.0524 H   0  0  0  0  0  0  0  0  0  0  0  0
   -2.5355   -0.9485   -0.8193 C   0  0  0  0  0  0  0  0  0  0  0  0
   -1.9533   -1.9829   -1.0414 H   0  0  0  0  0  0  0  0  0  0  0  0
   -2.6390   -0.4117   -1.8176 H   0  0  0  0  0  0  0  0  0  0  0  0
    2.8569    0.2419    0.0816 Br  0  0  0  0  0 15  0  0  0  0  0  0
   -3.0816    0.9494    0.2799 C   0  0  0  0  0  0  0  0  0  0  0  0
   -3.3709    1.6190   -0.6781 H   0  0  0  0  0  0  0  0  0  0  0  0
   -2.7381    1.5486    1.1312 H   0  0  0  0  0  0  0  0  0  0  0  0
   -4.2191    0.0465    0.6310 C   0  0  0  0  0  0  0  0  0  0  0  0
   -5.0122    0.4336    0.0474 H   0  0  0  0  0  0  0  0  0  0  0  0
   -4.5085   -0.3270    1.6956 H   0  0  0  0  0  0  0  0  0  0  0  0
   -3.9662   -1.2255   -0.4822 O   0  0  0  0  0  0  0  0  0  0  0  0
  1  8  1  0  0  0  0
  1  3  1  0  0  0  0
  2  1  1  0  0  0  0
  4 14  1  0  0  0  0
  4  1  1  0  0  0  0
  5  4  1  0  0  0  0
  6  4  1  0  0  0  0
  8 11  1  0  0  0  0
  8 10  1  0  0  0  0
  9  8  1  0  0  0  0
 11 13  1  0  0  0  0
 12 11  1  0  0  0  0
 14 11  1  0  0  0  0
M  END
$$$$
Title Card Required
 OpenBabel06272217483D

 14 13  0  0  0  0  0  0  0  0999 V2000
   -1.7879   -0.0719    0.0195 C   0  0  0  0  0  0  0  0  0  0  0  0
   -0.8487    0.2925   -0.3813 H   0  0  0  0  0  0  0  0  0  0  0  0
   -1.4684   -0.3773    1.0010 H   0  0  0  0  0  0  0  0  0  0  0  0
   -2.5313   -0.9628   -0.8260 C   0  0  0  0  0  0  0  0  0  0  0  0
   -1.9937   -1.9366   -1.0659 H   0  0  0  0  0  0  0  0  0  0  0  0
   -2.6125   -0.4169   -1.8393 H   0  0  0  0  0  0  0  0  0  0  0  0
    2.8577    0.2428    0.0817 Br  0  0  0  0  0 15  0  0  0  0  0  0
   -3.0976    0.9348    0.2850 C   0  0  0  0  0  0  0  0  0  0  0  0
   -3.3373    1.6818   -0.6176 H   0  0  0  0  0  0  0  0  0  0  0  0
   -2.6802    1.4926    1.1029 H   0  0  0  0  0  0  0  0  0  0  0  0
   -4.2066    0.0725    0.6452 C   0  0  0  0  0  0  0  0  0  0  0  0
   -5.0386    0.4733   -0.0022 H   0  0  0  0  0  0  0  0  0  0  0  0
   -4.4958   -0.2628    1.6546 H   0  0  0  0  0  0  0  0  0  0  0  0
   -3.9632   -1.2368   -0.4867 O   0  0  0  0  0  0  0  0  0  0  0  0
  1  8  1  0  0  0  0
  1  3  1  0  0  0  0
  2  1  1  0  0  0  0
  4 14  1  0  0  0  0
  4  1  1  0  0  0  0
  5  4  1  0  0  0  0
  6  4  1  0  0  0  0
  8 11  1  0  0  0  0
  8 10  1  0  0  0  0
  9  8  1  0  0  0  0
 11 13  1  0  0  0  0
 12 11  1  0  0  0  0
 14 11  1  0  0  0  0
M  END
$$$$
Title Card Required
 OpenBabel06272217483D

 14 13  0  0  0  0  0  0  0  0999 V2000
   -1.8005   -0.0669    0.0226 C   0  0  0  0  0  0  0  0  0  0  0  0
   -0.9238    0.3191   -0.3331 H   0  0  0  0  0  0  0  0  0  0  0  0
   -1.4686   -0.4279    0.9607 H   0  0  0  0  0  0  0  0  0  0  0  0
   -2.5295   -0.9816   -0.8389 C   0  0  0  0  0  0  0  0  0  0  0  0
   -2.0473   -1.8807   -1.0844 H   0  0  0  0  0  0  0  0  0  0  0  0
   -2.5791   -0.4346   -1.8461 H   0  0  0  0  0  0  0  0  0  0  0  0
    2.8584    0.2436    0.0818 Br  0  0  0  0  0 15  0  0  0  0  0  0
   -3.1090    0.9219    0.2890 C   0  0  0  0  0  0  0  0  0  0  0  0
   -3.2919    1.7179   -0.5262 H   0  0  0  0  0  0  0  0  0  0  0  0
   -2.6251    1.4506    1.0854 H   0  0  0  0  0  0  0  0  0  0  0  0
   -4.1968    0.0962    0.6531 C   0  0  0  0  0  0  0  0  0  0  0  0
   -5.0686    0.5068   -0.0275 H   0  0  0  0  0  0  0  0  0  0  0  0
   -4.4741   -0.1981    1.6086 H   0  0  0  0  0  0  0  0  0  0  0  0
   -3.9573   -1.2456   -0.4880 O   0  0  0  0  0  0  0  0  0  0  0  0
  1  8  1  0  0  0  0
  1  3  1  0  0  0  0
  2  1  1  0  0  0  0
  4 14  1  0  0  0  0
  4  1  1  0  0  0  0
  5  4  1  0  0  0  0
  6  4  1  0  0  0  0
  8 11  1  0  0  0  0
  8 10  1  0  0  0  0
  9  8  1  0  0  0  0
 11 13  1  0  0  0  0
 12 11  1  0  0  0  0
 14 11  1  0  0  0  0
M  END
$$$$
Title Card Required
 OpenBabel06272217483D

 14 13  0  0  0  0  0  0  0  0999 V2000
   -1.8219   -0.0602    0.0281 C   0  0  0  0  0  0  0  0  0  0  0  0
   -0.9635    0.3808   -0.3133 H   0  0  0  0  0  0  0  0  0  0  0  0
   -1.4709   -0.5021    0.9450 H   0  0  0  0  0  0  0  0  0  0  0  0
   -2.5325   -1.0021   -0.8583 C   0  0  0  0  0  0  0  0  0  0  0  0
   -2.0924   -1.8594   -1.1046 H   0  0  0  0  0  0  0  0  0  0  0  0
   -2.5406   -0.4652   -1.8389 H   0  0  0  0  0  0  0  0  0  0  0  0
    2.8592    0.2446    0.0820 Br  0  0  0  0  0 15  0  0  0  0  0  0
   -3.1131    0.9113    0.2929 C   0  0  0  0  0  0  0  0  0  0  0  0
   -3.2369    1.7287   -0.4111 H   0  0  0  0  0  0  0  0  0  0  0  0
   -2.5718    1.4232    1.0881 H   0  0  0  0  0  0  0  0  0  0  0  0
   -4.1917    0.1195    0.6495 C   0  0  0  0  0  0  0  0  0  0  0  0
   -5.0850    0.5261   -0.0123 H   0  0  0  0  0  0  0  0  0  0  0  0
   -4.4524   -0.1451    1.5962 H   0  0  0  0  0  0  0  0  0  0  0  0
   -3.9477   -1.2517   -0.4854 O   0  0  0  0  0  0  0  0  0  0  0  0
  1  8  1  0  0  0  0
  1  3  1  0  0  0  0
  2  1  1  0  0  0  0
  4 14  1  0  0  0  0
  4  1  1  0  0  0  0
  5  4  1  0  0  0  0
  6  4  1  0  0  0  0
  8 11  1  0  0  0  0
  8 10  1  0  0  0  0
  9  8  1  0  0  0  0
 11 13  1  0  0  0  0
 12 11  1  0  0  0  0
 14 11  1  0  0  0  0
M  END
$$$$
Title Card Required
 OpenBabel06272217483D

 14 13  0  0  0  0  0  0  0  0999 V2000
   -1.8488   -0.0545    0.0351 C   0  0  0  0  0  0  0  0  0  0  0  0
   -0.9599    0.4680   -0.3251 H   0  0  0  0  0  0  0  0  0  0  0  0
   -1.4780   -0.5804    0.9495 H   0  0  0  0  0  0  0  0  0  0  0  0
   -2.5411   -1.0171   -0.8792 C   0  0  0  0  0  0  0  0  0  0  0  0
   -2.0995   -1.9172   -1.1297 H   0  0  0  0  0  0  0  0  0  0  0  0
   -2.5084   -0.4970   -1.8311 H   0  0  0  0  0  0  0  0  0  0  0  0
    2.8599    0.2455    0.0821 Br  0  0  0  0  0 15  0  0  0  0  0  0
   -3.1064    0.9046    0.2985 C   0  0  0  0  0  0  0  0  0  0  0  0
   -3.1888    1.7317   -0.3193 H   0  0  0  0  0  0  0  0  0  0  0  0
   -2.5348    1.4086    1.1105 H   0  0  0  0  0  0  0  0  0  0  0  0
   -4.1938    0.1383    0.6338 C   0  0  0  0  0  0  0  0  0  0  0  0
   -5.0810    0.5269    0.0413 H   0  0  0  0  0  0  0  0  0  0  0  0
   -4.4386   -0.1200    1.6368 H   0  0  0  0  0  0  0  0  0  0  0  0
   -3.9358   -1.2540   -0.4795 O   0  0  0  0  0  0  0  0  0  0  0  0
  1  8  1  0  0  0  0
  1  3  1  0  0  0  0
  2  1  1  0  0  0  0
  4 14  1  0  0  0  0
  4  1  1  0  0  0  0
  5  4  1  0  0  0  0
  6  4  1  0  0  0  0
  8 11  1  0  0  0  0
  8 10  1  0  0  0  0
  9  8  1  0  0  0  0
 11 13  1  0  0  0  0
 12 11  1  0  0  0  0
 14 11  1  0  0  0  0
M  END
$$$$
Title Card Required
 OpenBabel06272217483D

 14 13  0  0  0  0  0  0  0  0999 V2000
   -1.8754   -0.0502    0.0425 C   0  0  0  0  0  0  0  0  0  0  0  0
   -0.9533    0.5513   -0.3452 H   0  0  0  0  0  0  0  0  0  0  0  0
   -1.4942   -0.6455    0.9535 H   0  0  0  0  0  0  0  0  0  0  0  0
   -2.5526   -1.0287   -0.8995 C   0  0  0  0  0  0  0  0  0  0  0  0
   -2.0849   -2.0151   -1.1495 H   0  0  0  0  0  0  0  0  0  0  0  0
   -2.4866   -0.5209   -1.8382 H   0  0  0  0  0  0  0  0  0  0  0  0
    2.8605    0.2464    0.0822 Br  0  0  0  0  0 15  0  0  0  0  0  0
   -3.0899    0.9004    0.3077 C   0  0  0  0  0  0  0  0  0  0  0  0
   -3.1523    1.7522   -0.2734 H   0  0  0  0  0  0  0  0  0  0  0  0
   -2.5187    1.3976    1.1441 H   0  0  0  0  0  0  0  0  0  0  0  0
   -4.2018    0.1510    0.6126 C   0  0  0  0  0  0  0  0  0  0  0  0
   -5.0707    0.5184    0.1117 H   0  0  0  0  0  0  0  0  0  0  0  0
   -4.4246   -0.1121    1.6913 H   0  0  0  0  0  0  0  0  0  0  0  0
   -3.9230   -1.2532   -0.4714 O   0  0  0  0  0  0  0  0  0  0  0  0
  1  8  1  0  0  0  0
  1  3  1  0  0  0  0
  2  1  1  0  0  0  0
  4 14  1  0  0  0  0
  4  1  1  0  0  0  0
  5  4  1  0  0  0  0
  6  4  1  0  0  0  0
  8 11  1  0  0  0  0
  8 10  1  0  0  0  0
  9  8  1  0  0  0  0
 11 13  1  0  0  0  0
 12 11  1  0  0  0  0
 14 11  1  0  0  0  0
M  END
$$$$
Title Card Required
 OpenBabel06272217483D

 14 13  0  0  0  0  0  0  0  0999 V2000
   -1.9007   -0.0467    0.0499 C   0  0  0  0  0  0  0  0  0  0  0  0
   -0.9695    0.6148   -0.3594 H   0  0  0  0  0  0  0  0  0  0  0  0
   -1.5228   -0.6914    0.9454 H   0  0  0  0  0  0  0  0  0  0  0  0
   -2.5652   -1.0416   -0.9204 C   0  0  0  0  0  0  0  0  0  0  0  0
   -2.0708   -2.1093   -1.1546 H   0  0  0  0  0  0  0  0  0  0  0  0
   -2.4748   -0.5360   -1.8679 H   0  0  0  0  0  0  0  0  0  0  0  0
    2.8610    0.2472    0.0823 Br  0  0  0  0  0 15  0  0  0  0  0  0
   -3.0640    0.8982    0.3213 C   0  0  0  0  0  0  0  0  0  0  0  0
   -3.1234    1.7934   -0.2687 H   0  0  0  0  0  0  0  0  0  0  0  0
   -2.5240    1.3848    1.1862 H   0  0  0  0  0  0  0  0  0  0  0  0
   -4.2139    0.1574    0.5897 C   0  0  0  0  0  0  0  0  0  0  0  0
   -5.0785    0.5131    0.1813 H   0  0  0  0  0  0  0  0  0  0  0  0
   -4.4023   -0.1113    1.7263 H   0  0  0  0  0  0  0  0  0  0  0  0
   -3.9089   -1.2494   -0.4607 O   0  0  0  0  0  0  0  0  0  0  0  0
  1  8  1  0  0  0  0
  1  3  1  0  0  0  0
  2  1  1  0  0  0  0
  4 14  1  0  0  0  0
  4  1  1  0  0  0  0
  5  4  1  0  0  0  0
  6  4  1  0  0  0  0
  8 11  1  0  0  0  0
  8 10  1  0  0  0  0
  9  8  1  0  0  0  0
 11 13  1  0  0  0  0
 12 11  1  0  0  0  0
 14 11  1  0  0  0  0
M  END
$$$$
Title Card Required
 OpenBabel06272217483D

 14 13  0  0  0  0  0  0  0  0999 V2000
   -1.9223   -0.0445    0.0560 C   0  0  0  0  0  0  0  0  0  0  0  0
   -1.0163    0.6452   -0.3602 H   0  0  0  0  0  0  0  0  0  0  0  0
   -1.5630   -0.7116    0.9225 H   0  0  0  0  0  0  0  0  0  0  0  0
   -2.5775   -1.0568   -0.9414 C   0  0  0  0  0  0  0  0  0  0  0  0
   -2.0699   -2.1689   -1.1409 H   0  0  0  0  0  0  0  0  0  0  0  0
   -2.4745   -0.5459   -1.9166 H   0  0  0  0  0  0  0  0  0  0  0  0
    2.8615    0.2481    0.0824 Br  0  0  0  0  0 15  0  0  0  0  0  0
   -3.0312    0.8996    0.3383 C   0  0  0  0  0  0  0  0  0  0  0  0
   -3.0992    1.8357   -0.2899 H   0  0  0  0  0  0  0  0  0  0  0  0
   -2.5509    1.3698    1.2337 H   0  0  0  0  0  0  0  0  0  0  0  0
   -4.2266    0.1563    0.5686 C   0  0  0  0  0  0  0  0  0  0  0  0
   -5.1285    0.5227    0.2321 H   0  0  0  0  0  0  0  0  0  0  0  0
   -4.3706   -0.1145    1.7229 H   0  0  0  0  0  0  0  0  0  0  0  0
   -3.8944   -1.2426   -0.4480 O   0  0  0  0  0  0  0  0  0  0  0  0
  1  8  1  0  0  0  0
  1  3  1  0  0  0  0
  2  1  1  0  0  0  0
  4 14  1  0  0  0  0
  4  1  1  0  0  0  0
  5  4  1  0  0  0  0
  6  4  1  0  0  0  0
  8 11  1  0  0  0  0
  8 10  1  0  0  0  0
  9  8  1  0  0  0  0
 11 13  1  0  0  0  0
 12 11  1  0  0  0  0
 14 11  1  0  0  0  0
M  END
$$$$
Title Card Required
 OpenBabel06272217483D

 14 13  0  0  0  0  0  0  0  0999 V2000
   -1.9385   -0.0440    0.0596 C   0  0  0  0  0  0  0  0  0  0  0  0
   -1.0829    0.6405   -0.3479 H   0  0  0  0  0  0  0  0  0  0  0  0
   -1.6075   -0.7082    0.8921 H   0  0  0  0  0  0  0  0  0  0  0  0
   -2.5877   -1.0726   -0.9610 C   0  0  0  0  0  0  0  0  0  0  0  0
   -2.0843   -2.1831   -1.1125 H   0  0  0  0  0  0  0  0  0  0  0  0
   -2.4857   -0.5574   -1.9676 H   0  0  0  0  0  0  0  0  0  0  0  0
    2.8620    0.2489    0.0824 Br  0  0  0  0  0 15  0  0  0  0  0  0
   -2.9977    0.9052    0.3562 C   0  0  0  0  0  0  0  0  0  0  0  0
   -3.0775    1.8568   -0.3163 H   0  0  0  0  0  0  0  0  0  0  0  0
   -2.5925    1.3557    1.2820 H   0  0  0  0  0  0  0  0  0  0  0  0
   -4.2375    0.1491    0.5507 C   0  0  0  0  0  0  0  0  0  0  0  0
   -5.2072    0.5442    0.2616 H   0  0  0  0  0  0  0  0  0  0  0  0
   -4.3348   -0.1217    1.6823 H   0  0  0  0  0  0  0  0  0  0  0  0
   -3.8813   -1.2336   -0.4344 O   0  0  0  0  0  0  0  0  0  0  0  0
  1  8  1  0  0  0  0
  1  3  1  0  0  0  0
  2  1  1  0  0  0  0
  4 14  1  0  0  0  0
  4  1  1  0  0  0  0
  5  4  1  0  0  0  0
  6  4  1  0  0  0  0
  8 11  1  0  0  0  0
  8 10  1  0  0  0  0
  9  8  1  0  0  0  0
 11 13  1  0  0  0  0
 12 11  1  0  0  0  0
 14 11  1  0  0  0  0
M  END
$$$$
Title Card Required
 OpenBabel06272217483D

 14 13  0  0  0  0  0  0  0  0999 V2000
   -1.9503   -0.0453    0.0600 C   0  0  0  0  0  0  0  0  0  0  0  0
   -1.1540    0.6105   -0.3281 H   0  0  0  0  0  0  0  0  0  0  0  0
   -1.6500   -0.6922    0.8645 H   0  0  0  0  0  0  0  0  0  0  0  0
   -2.5958   -1.0875   -0.9795 C   0  0  0  0  0  0  0  0  0  0  0  0
   -2.1105   -2.1605   -1.0754 H   0  0  0  0  0  0  0  0  0  0  0  0
   -2.5065   -0.5757   -2.0103 H   0  0  0  0  0  0  0  0  0  0  0  0
    2.8624    0.2497    0.0825 Br  0  0  0  0  0 15  0  0  0  0  0  0
   -2.9664    0.9146    0.3737 C   0  0  0  0  0  0  0  0  0  0  0  0
   -3.0555    1.8517   -0.3367 H   0  0  0  0  0  0  0  0  0  0  0  0
   -2.6417    1.3447    1.3304 H   0  0  0  0  0  0  0  0  0  0  0  0
   -4.2474    0.1383    0.5344 C   0  0  0  0  0  0  0  0  0  0  0  0
   -5.2838    0.5657    0.2804 H   0  0  0  0  0  0  0  0  0  0  0  0
   -4.2988   -0.1349    1.6184 H   0  0  0  0  0  0  0  0  0  0  0  0
   -3.8700   -1.2231   -0.4201 O   0  0  0  0  0  0  0  0  0  0  0  0
  1  8  1  0  0  0  0
  1  3  1  0  0  0  0
  2  1  1  0  0  0  0
  4 14  1  0  0  0  0
  4  1  1  0  0  0  0
  5  4  1  0  0  0  0
  6  4  1  0  0  0  0
  8 11  1  0  0  0  0
  8 10  1  0  0  0  0
  9  8  1  0  0  0  0
 11 13  1  0  0  0  0
 12 11  1  0  0  0  0
 14 11  1  0  0  0  0
M  END
$$$$
Title Card Required
 OpenBabel06272217483D

 14 13  0  0  0  0  0  0  0  0999 V2000
   -1.9596   -0.0489    0.0571 C   0  0  0  0  0  0  0  0  0  0  0  0
   -1.2128    0.5674   -0.3079 H   0  0  0  0  0  0  0  0  0  0  0  0
   -1.6864   -0.6747    0.8496 H   0  0  0  0  0  0  0  0  0  0  0  0
   -2.6027   -1.1010   -0.9974 C   0  0  0  0  0  0  0  0  0  0  0  0
   -2.1442   -2.1127   -1.0326 H   0  0  0  0  0  0  0  0  0  0  0  0
   -2.5361   -0.6036   -2.0414 H   0  0  0  0  0  0  0  0  0  0  0  0
    2.8628    0.2505    0.0826 Br  0  0  0  0  0 15  0  0  0  0  0  0
   -2.9382    0.9276    0.3911 C   0  0  0  0  0  0  0  0  0  0  0  0
   -3.0306    1.8227   -0.3471 H   0  0  0  0  0  0  0  0  0  0  0  0
   -2.6955    1.3377    1.3806 H   0  0  0  0  0  0  0  0  0  0  0  0
   -4.2570    0.1253    0.5170 C   0  0  0  0  0  0  0  0  0  0  0  0
   -5.3400    0.5793    0.2946 H   0  0  0  0  0  0  0  0  0  0  0  0
   -4.2647   -0.1579    1.5454 H   0  0  0  0  0  0  0  0  0  0  0  0
   -3.8606   -1.2109   -0.4048 O   0  0  0  0  0  0  0  0  0  0  0  0
  1  8  1  0  0  0  0
  1  3  1  0  0  0  0
  2  1  1  0  0  0  0
  4 14  1  0  0  0  0
  4  1  1  0  0  0  0
  5  4  1  0  0  0  0
  6  4  1  0  0  0  0
  8 11  1  0  0  0  0
  8 10  1  0  0  0  0
  9  8  1  0  0  0  0
 11 13  1  0  0  0  0
 12 11  1  0  0  0  0
 14 11  1  0  0  0  0
M  END
$$$$
Title Card Required
 OpenBabel06272217483D

 14 13  0  0  0  0  0  0  0  0999 V2000
   -1.9686   -0.0558    0.0505 C   0  0  0  0  0  0  0  0  0  0  0  0
   -1.2349    0.5263   -0.2982 H   0  0  0  0  0  0  0  0  0  0  0  0
   -1.7131   -0.6650    0.8567 H   0  0  0  0  0  0  0  0  0  0  0  0
   -2.6094   -1.1114   -1.0151 C   0  0  0  0  0  0  0  0  0  0  0  0
   -2.1779   -2.0569   -0.9855 H   0  0  0  0  0  0  0  0  0  0  0  0
   -2.5750   -0.6436   -2.0600 H   0  0  0  0  0  0  0  0  0  0  0  0
    2.8632    0.2513    0.0827 Br  0  0  0  0  0 15  0  0  0  0  0  0
   -2.9134    0.9441    0.4093 C   0  0  0  0  0  0  0  0  0  0  0  0
   -3.0009    1.7733   -0.3461 H   0  0  0  0  0  0  0  0  0  0  0  0
   -2.7528    1.3352    1.4323 H   0  0  0  0  0  0  0  0  0  0  0  0
   -4.2667    0.1104    0.4958 C   0  0  0  0  0  0  0  0  0  0  0  0
   -5.3659    0.5801    0.3060 H   0  0  0  0  0  0  0  0  0  0  0  0
   -4.2337   -0.1980    1.4812 H   0  0  0  0  0  0  0  0  0  0  0  0
   -3.8530   -1.1965   -0.3876 O   0  0  0  0  0  0  0  0  0  0  0  0
  1  8  1  0  0  0  0
  1  3  1  0  0  0  0
  2  1  1  0  0  0  0
  4  5  1  0  0  0  0
  4 14  1  0  0  0  0
  4  1  1  0  0  0  0
  6  4  1  0  0  0  0
  8 11  1  0  0  0  0
  8 10  1  0  0  0  0
  9  8  1  0  0  0  0
 11 13  1  0  0  0  0
 12 11  1  0  0  0  0
 14 11  1  0  0  0  0
M  END
$$$$
Title Card Required
 OpenBabel06272217483D

 14 13  0  0  0  0  0  0  0  0999 V2000
   -1.9780   -0.0670    0.0408 C   0  0  0  0  0  0  0  0  0  0  0  0
   -1.1979    0.5009   -0.3080 H   0  0  0  0  0  0  0  0  0  0  0  0
   -1.7273   -0.6680    0.8874 H   0  0  0  0  0  0  0  0  0  0  0  0
   -2.6169   -1.1153   -1.0311 C   0  0  0  0  0  0  0  0  0  0  0  0
   -2.1957   -2.0258   -0.9374 H   0  0  0  0  0  0  0  0  0  0  0  0
   -2.6207   -0.6940   -2.0669 H   0  0  0  0  0  0  0  0  0  0  0  0
    2.8636    0.2522    0.0828 Br  0  0  0  0  0 15  0  0  0  0  0  0
   -2.8941    0.9627    0.4281 C   0  0  0  0  0  0  0  0  0  0  0  0
   -2.9678    1.7166   -0.3371 H   0  0  0  0  0  0  0  0  0  0  0  0
   -2.8088    1.3366    1.4787 H   0  0  0  0  0  0  0  0  0  0  0  0
   -4.2755    0.0947    0.4698 C   0  0  0  0  0  0  0  0  0  0  0  0
   -5.3550    0.5644    0.3130 H   0  0  0  0  0  0  0  0  0  0  0  0
   -4.2090   -0.2595    1.4466 H   0  0  0  0  0  0  0  0  0  0  0  0
   -3.8483   -1.1803   -0.3690 O   0  0  0  0  0  0  0  0  0  0  0  0
  1  8  1  0  0  0  0
  1  3  1  0  0  0  0
  2  1  1  0  0  0  0
  4  5  1  0  0  0  0
  4 14  1  0  0  0  0
  4  1  1  0  0  0  0
  6  4  1  0  0  0  0
  8 11  1  0  0  0  0
  8 10  1  0  0  0  0
  9  8  1  0  0  0  0
 11 13  1  0  0  0  0
 12 11  1  0  0  0  0
 14 11  1  0  0  0  0
M  END
$$$$
Title Card Required
 OpenBabel06272217483D

 14 13  0  0  0  0  0  0  0  0999 V2000
   -1.9857   -0.0807    0.0296 C   0  0  0  0  0  0  0  0  0  0  0  0
   -1.1187    0.4836   -0.3301 H   0  0  0  0  0  0  0  0  0  0  0  0
   -1.7313   -0.6785    0.9267 H   0  0  0  0  0  0  0  0  0  0  0  0
   -2.6256   -1.1116   -1.0435 C   0  0  0  0  0  0  0  0  0  0  0  0
   -2.1890   -2.0385   -0.8916 H   0  0  0  0  0  0  0  0  0  0  0  0
   -2.6674   -0.7473   -2.0692 H   0  0  0  0  0  0  0  0  0  0  0  0
    2.8639    0.2530    0.0828 Br  0  0  0  0  0 15  0  0  0  0  0  0
   -2.8816    0.9803    0.4468 C   0  0  0  0  0  0  0  0  0  0  0  0
   -2.9356    1.6745   -0.3308 H   0  0  0  0  0  0  0  0  0  0  0  0
   -2.8566    1.3407    1.5113 H   0  0  0  0  0  0  0  0  0  0  0  0
   -4.2819    0.0792    0.4418 C   0  0  0  0  0  0  0  0  0  0  0  0
   -5.3149    0.5355    0.3132 H   0  0  0  0  0  0  0  0  0  0  0  0
   -4.1935   -0.3334    1.4402 H   0  0  0  0  0  0  0  0  0  0  0  0
   -3.8470   -1.1636   -0.3506 O   0  0  0  0  0  0  0  0  0  0  0  0
  1  8  1  0  0  0  0
  1  3  1  0  0  0  0
  2  1  1  0  0  0  0
  4  5  1  0  0  0  0
  4 14  1  0  0  0  0
  4  1  1  0  0  0  0
  6  4  1  0  0  0  0
  8 10  1  0  0  0  0
  9  8  1  0  0  0  0
 11  8  1  0  0  0  0
 11 13  1  0  0  0  0
 12 11  1  0  0  0  0
 14 11  1  0  0  0  0
M  END
$$$$
Title Card Required
 OpenBabel06272217483D

 14 13  0  0  0  0  0  0  0  0999 V2000
   -1.9896   -0.0956    0.0175 C   0  0  0  0  0  0  0  0  0  0  0  0
   -1.0278    0.4570   -0.3517 H   0  0  0  0  0  0  0  0  0  0  0  0
   -1.7307   -0.6898    0.9595 H   0  0  0  0  0  0  0  0  0  0  0  0
   -2.6353   -1.1025   -1.0516 C   0  0  0  0  0  0  0  0  0  0  0  0
   -2.1666   -2.0779   -0.8497 H   0  0  0  0  0  0  0  0  0  0  0  0
   -2.7144   -0.7996   -2.0765 H   0  0  0  0  0  0  0  0  0  0  0  0
    2.8643    0.2538    0.0829 Br  0  0  0  0  0 15  0  0  0  0  0  0
   -2.8748    0.9957    0.4664 C   0  0  0  0  0  0  0  0  0  0  0  0
   -2.9057    1.6592   -0.3364 H   0  0  0  0  0  0  0  0  0  0  0  0
   -2.8951    1.3468    1.5290 H   0  0  0  0  0  0  0  0  0  0  0  0
   -4.2848    0.0627    0.4135 C   0  0  0  0  0  0  0  0  0  0  0  0
   -5.2611    0.4988    0.3036 H   0  0  0  0  0  0  0  0  0  0  0  0
   -4.1885   -0.4085    1.4426 H   0  0  0  0  0  0  0  0  0  0  0  0
   -3.8488   -1.1464   -0.3325 O   0  0  0  0  0  0  0  0  0  0  0  0
  1  8  1  0  0  0  0
  1  3  1  0  0  0  0
  2  1  1  0  0  0  0
  4  5  1  0  0  0  0
  4 14  1  0  0  0  0
  4  1  1  0  0  0  0
  6  4  1  0  0  0  0
  8 10  1  0  0  0  0
  9  8  1  0  0  0  0
 11  8  1  0  0  0  0
 11 13  1  0  0  0  0
 12 11  1  0  0  0  0
 14 11  1  0  0  0  0
M  END
$$$$
Title Card Required
 OpenBabel06272217483D

 14 13  0  0  0  0  0  0  0  0999 V2000
   -1.9875   -0.1114    0.0044 C   0  0  0  0  0  0  0  0  0  0  0  0
   -0.9450    0.4079   -0.3651 H   0  0  0  0  0  0  0  0  0  0  0  0
   -1.7291   -0.6982    0.9743 H   0  0  0  0  0  0  0  0  0  0  0  0
   -2.6456   -1.0905   -1.0544 C   0  0  0  0  0  0  0  0  0  0  0  0
   -2.1414   -2.1184   -0.8158 H   0  0  0  0  0  0  0  0  0  0  0  0
   -2.7635   -0.8508   -2.0971 H   0  0  0  0  0  0  0  0  0  0  0  0
    2.8646    0.2546    0.0830 Br  0  0  0  0  0 15  0  0  0  0  0  0
   -2.8730    1.0086    0.4872 C   0  0  0  0  0  0  0  0  0  0  0  0
   -2.8773    1.6747   -0.3546 H   0  0  0  0  0  0  0  0  0  0  0  0
   -2.9239    1.3558    1.5335 H   0  0  0  0  0  0  0  0  0  0  0  0
   -4.2819    0.0426    0.3859 C   0  0  0  0  0  0  0  0  0  0  0  0
   -5.2140    0.4620    0.2788 H   0  0  0  0  0  0  0  0  0  0  0  0
   -4.1971   -0.4763    1.4377 H   0  0  0  0  0  0  0  0  0  0  0  0
   -3.8540   -1.1280   -0.3141 O   0  0  0  0  0  0  0  0  0  0  0  0
  1  8  1  0  0  0  0
  1  3  1  0  0  0  0
  2  1  1  0  0  0  0
  4  5  1  0  0  0  0
  4 14  1  0  0  0  0
  4  1  1  0  0  0  0
  6  4  1  0  0  0  0
  8 10  1  0  0  0  0
  9  8  1  0  0  0  0
 11  8  1  0  0  0  0
 11 13  1  0  0  0  0
 12 11  1  0  0  0  0
 14 11  1  0  0  0  0
M  END
$$$$
Title Card Required
 OpenBabel06272217483D

 14 13  0  0  0  0  0  0  0  0999 V2000
   -1.9773   -0.1270   -0.0092 C   0  0  0  0  0  0  0  0  0  0  0  0
   -0.8890    0.3297   -0.3645 H   0  0  0  0  0  0  0  0  0  0  0  0
   -1.7287   -0.7027    0.9605 H   0  0  0  0  0  0  0  0  0  0  0  0
   -2.6560   -1.0775   -1.0503 C   0  0  0  0  0  0  0  0  0  0  0  0
   -2.1269   -2.1354   -0.7983 H   0  0  0  0  0  0  0  0  0  0  0  0
   -2.8131   -0.8993   -2.1305 H   0  0  0  0  0  0  0  0  0  0  0  0
    2.8649    0.2556    0.0831 Br  0  0  0  0  0 15  0  0  0  0  0  0
   -2.8764    1.0185    0.5071 C   0  0  0  0  0  0  0  0  0  0  0  0
   -2.8518    1.7161   -0.3724 H   0  0  0  0  0  0  0  0  0  0  0  0
   -2.9400    1.3695    1.5296 H   0  0  0  0  0  0  0  0  0  0  0  0
   -4.2702    0.0177    0.3614 C   0  0  0  0  0  0  0  0  0  0  0  0
   -5.2023    0.4375    0.2319 H   0  0  0  0  0  0  0  0  0  0  0  0
   -4.2234   -0.5232    1.4161 H   0  0  0  0  0  0  0  0  0  0  0  0
   -3.8626   -1.1090   -0.2963 O   0  0  0  0  0  0  0  0  0  0  0  0
  1  8  1  0  0  0  0
  1  3  1  0  0  0  0
  2  1  1  0  0  0  0
  4  5  1  0  0  0  0
  4 14  1  0  0  0  0
  4  1  1  0  0  0  0
  6  4  1  0  0  0  0
  8 10  1  0  0  0  0
  9  8  1  0  0  0  0
 11  8  1  0  0  0  0
 11 13  1  0  0  0  0
 12 11  1  0  0  0  0
 14 11  1  0  0  0  0
M  END
$$$$
Title Card Required
 OpenBabel06272217483D

 14 13  0  0  0  0  0  0  0  0999 V2000
   -1.9592   -0.1403   -0.0215 C   0  0  0  0  0  0  0  0  0  0  0  0
   -0.8732    0.2307   -0.3498 H   0  0  0  0  0  0  0  0  0  0  0  0
   -1.7307   -0.7060    0.9183 H   0  0  0  0  0  0  0  0  0  0  0  0
   -2.6657   -1.0658   -1.0402 C   0  0  0  0  0  0  0  0  0  0  0  0
   -2.1323   -2.1151   -0.8030 H   0  0  0  0  0  0  0  0  0  0  0  0
   -2.8558   -0.9411   -2.1598 H   0  0  0  0  0  0  0  0  0  0  0  0
    2.8652    0.2565    0.0831 Br  0  0  0  0  0 15  0  0  0  0  0  0
   -2.8843    1.0244    0.5211 C   0  0  0  0  0  0  0  0  0  0  0  0
   -2.8330    1.7662   -0.3690 H   0  0  0  0  0  0  0  0  0  0  0  0
   -2.9406    1.3891    1.5276 H   0  0  0  0  0  0  0  0  0  0  0  0
   -4.2511   -0.0087    0.3440 C   0  0  0  0  0  0  0  0  0  0  0  0
   -5.2292    0.4295    0.1646 H   0  0  0  0  0  0  0  0  0  0  0  0
   -4.2671   -0.5367    1.3802 H   0  0  0  0  0  0  0  0  0  0  0  0
   -3.8734   -1.0922   -0.2821 O   0  0  0  0  0  0  0  0  0  0  0  0
  1  8  1  0  0  0  0
  1  3  1  0  0  0  0
  2  1  1  0  0  0  0
  4  5  1  0  0  0  0
  4 14  1  0  0  0  0
  4  1  1  0  0  0  0
  6  4  1  0  0  0  0
  8 10  1  0  0  0  0
  9  8  1  0  0  0  0
 11  8  1  0  0  0  0
 11 13  1  0  0  0  0
 12 11  1  0  0  0  0
 14 11  1  0  0  0  0
M  END
$$$$
Title Card Required
 OpenBabel06272217483D

 14 13  0  0  0  0  0  0  0  0999 V2000
   -1.9357   -0.1501   -0.0323 C   0  0  0  0  0  0  0  0  0  0  0  0
   -0.8903    0.1259   -0.3272 H   0  0  0  0  0  0  0  0  0  0  0  0
   -1.7341   -0.7157    0.8628 H   0  0  0  0  0  0  0  0  0  0  0  0
   -2.6748   -1.0565   -1.0267 C   0  0  0  0  0  0  0  0  0  0  0  0
   -2.1568   -2.0638   -0.8266 H   0  0  0  0  0  0  0  0  0  0  0  0
   -2.8869   -0.9732   -2.1685 H   0  0  0  0  0  0  0  0  0  0  0  0
    2.8655    0.2574    0.0832 Br  0  0  0  0  0 15  0  0  0  0  0  0
   -2.8951    1.0264    0.5271 C   0  0  0  0  0  0  0  0  0  0  0  0
   -2.8233    1.8103   -0.3356 H   0  0  0  0  0  0  0  0  0  0  0  0
   -2.9276    1.4130    1.5342 H   0  0  0  0  0  0  0  0  0  0  0  0
   -4.2298   -0.0314    0.3348 C   0  0  0  0  0  0  0  0  0  0  0  0
   -5.2618    0.4273    0.0867 H   0  0  0  0  0  0  0  0  0  0  0  0
   -4.3242   -0.5174    1.3422 H   0  0  0  0  0  0  0  0  0  0  0  0
   -3.8844   -1.0802   -0.2733 O   0  0  0  0  0  0  0  0  0  0  0  0
  1  8  1  0  0  0  0
  1  3  1  0  0  0  0
  2  1  1  0  0  0  0
  4  5  1  0  0  0  0
  4 14  1  0  0  0  0
  4  1  1  0  0  0  0
  6  4  1  0  0  0  0
  8 10  1  0  0  0  0
  9  8  1  0  0  0  0
 11  8  1  0  0  0  0
 11 13  1  0  0  0  0
 12 11  1  0  0  0  0
 14 11  1  0  0  0  0
M  END
$$$$
Title Card Required
 OpenBabel06272217483D

 14 13  0  0  0  0  0  0  0  0999 V2000
   -1.9092   -0.1564   -0.0423 C   0  0  0  0  0  0  0  0  0  0  0  0
   -0.9161    0.0270   -0.3059 H   0  0  0  0  0  0  0  0  0  0  0  0
   -1.7375   -0.7421    0.8122 H   0  0  0  0  0  0  0  0  0  0  0  0
   -2.6841   -1.0485   -1.0111 C   0  0  0  0  0  0  0  0  0  0  0  0
   -2.1944   -1.9976   -0.8634 H   0  0  0  0  0  0  0  0  0  0  0  0
   -2.9061   -0.9939   -2.1503 H   0  0  0  0  0  0  0  0  0  0  0  0
    2.8657    0.2583    0.0833 Br  0  0  0  0  0 15  0  0  0  0  0  0
   -2.9078    1.0250    0.5260 C   0  0  0  0  0  0  0  0  0  0  0  0
   -2.8234    1.8437   -0.2736 H   0  0  0  0  0  0  0  0  0  0  0  0
   -2.9025    1.4375    1.5468 H   0  0  0  0  0  0  0  0  0  0  0  0
   -4.2102   -0.0468    0.3332 C   0  0  0  0  0  0  0  0  0  0  0  0
   -5.2736    0.4219    0.0050 H   0  0  0  0  0  0  0  0  0  0  0  0
   -4.3940   -0.4714    1.3154 H   0  0  0  0  0  0  0  0  0  0  0  0
   -3.8946   -1.0744   -0.2706 O   0  0  0  0  0  0  0  0  0  0  0  0
  1  8  1  0  0  0  0
  1  3  1  0  0  0  0
  2  1  1  0  0  0  0
  4  5  1  0  0  0  0
  4 14  1  0  0  0  0
  4  1  1  0  0  0  0
  6  4  1  0  0  0  0
  8 10  1  0  0  0  0
  9  8  1  0  0  0  0
 11  8  1  0  0  0  0
 11 13  1  0  0  0  0
 12 11  1  0  0  0  0
 14 11  1  0  0  0  0
M  END
$$$$
Title Card Required
 OpenBabel06272217483D

 14 13  0  0  0  0  0  0  0  0999 V2000
   -1.8833   -0.1597   -0.0520 C   0  0  0  0  0  0  0  0  0  0  0  0
   -0.9108   -0.0535   -0.2992 H   0  0  0  0  0  0  0  0  0  0  0  0
   -1.7413   -0.7941    0.7817 H   0  0  0  0  0  0  0  0  0  0  0  0
   -2.6950   -1.0398   -0.9943 C   0  0  0  0  0  0  0  0  0  0  0  0
   -2.2323   -1.9454   -0.9065 H   0  0  0  0  0  0  0  0  0  0  0  0
   -2.9142   -0.9985   -2.1057 H   0  0  0  0  0  0  0  0  0  0  0  0
    2.8659    0.2592    0.0833 Br  0  0  0  0  0 15  0  0  0  0  0  0
   -2.9219    1.0199    0.5191 C   0  0  0  0  0  0  0  0  0  0  0  0
   -2.8350    1.8668   -0.1898 H   0  0  0  0  0  0  0  0  0  0  0  0
   -2.8661    1.4555    1.5567 H   0  0  0  0  0  0  0  0  0  0  0  0
   -4.1944   -0.0512    0.3386 C   0  0  0  0  0  0  0  0  0  0  0  0
   -5.2512    0.4115   -0.0755 H   0  0  0  0  0  0  0  0  0  0  0  0
   -4.4772   -0.4051    1.3132 H   0  0  0  0  0  0  0  0  0  0  0  0
   -3.9032   -1.0766   -0.2744 O   0  0  0  0  0  0  0  0  0  0  0  0
  1  8  1  0  0  0  0
  1  3  1  0  0  0  0
  2  1  1  0  0  0  0
  4  5  1  0  0  0  0
  4 14  1  0  0  0  0
  4  1  1  0  0  0  0
  6  4  1  0  0  0  0
  8 10  1  0  0  0  0
  9  8  1  0  0  0  0
 11  8  1  0  0  0  0
 11 13  1  0  0  0  0
 12 11  1  0  0  0  0
 14 11  1  0  0  0  0
M  END
$$$$
Title Card Required
 OpenBabel06272217483D

 14 13  0  0  0  0  0  0  0  0999 V2000
   -1.8629   -0.1605   -0.0597 C   0  0  0  0  0  0  0  0  0  0  0  0
   -0.8510   -0.1034   -0.3144 H   0  0  0  0  0  0  0  0  0  0  0  0
   -1.7470   -0.8614    0.7738 H   0  0  0  0  0  0  0  0  0  0  0  0
   -2.7070   -1.0293   -0.9782 C   0  0  0  0  0  0  0  0  0  0  0  0
   -2.2515   -1.9431   -0.9450 H   0  0  0  0  0  0  0  0  0  0  0  0
   -2.9137   -0.9824   -2.0509 H   0  0  0  0  0  0  0  0  0  0  0  0
    2.8661    0.2601    0.0834 Br  0  0  0  0  0 15  0  0  0  0  0  0
   -2.9352    1.0112    0.5096 C   0  0  0  0  0  0  0  0  0  0  0  0
   -2.8569    1.8851   -0.1080 H   0  0  0  0  0  0  0  0  0  0  0  0
   -2.8244    1.4578    1.5546 H   0  0  0  0  0  0  0  0  0  0  0  0
   -4.1846   -0.0433    0.3493 C   0  0  0  0  0  0  0  0  0  0  0  0
   -5.1958    0.4003   -0.1431 H   0  0  0  0  0  0  0  0  0  0  0  0
   -4.5632   -0.3315    1.3368 H   0  0  0  0  0  0  0  0  0  0  0  0
   -3.9092   -1.0868   -0.2839 O   0  0  0  0  0  0  0  0  0  0  0  0
  1  8  1  0  0  0  0
  1  3  1  0  0  0  0
  2  1  1  0  0  0  0
  4  5  1  0  0  0  0
  4 14  1  0  0  0  0
  4  1  1  0  0  0  0
  6  4  1  0  0  0  0
  8 10  1  0  0  0  0
  9  8  1  0  0  0  0
 11  8  1  0  0  0  0
 11 13  1  0  0  0  0
 12 11  1  0  0  0  0
 14 11  1  0  0  0  0
M  END
$$$$
Title Card Required
 OpenBabel06272217483D

 14 13  0  0  0  0  0  0  0  0999 V2000
   -1.8471   -0.1603   -0.0649 C   0  0  0  0  0  0  0  0  0  0  0  0
   -0.7677   -0.1276   -0.3414 H   0  0  0  0  0  0  0  0  0  0  0  0
   -1.7550   -0.9234    0.7740 H   0  0  0  0  0  0  0  0  0  0  0  0
   -2.7186   -1.0180   -0.9632 C   0  0  0  0  0  0  0  0  0  0  0  0
   -2.2527   -1.9835   -0.9757 H   0  0  0  0  0  0  0  0  0  0  0  0
   -2.9101   -0.9464   -2.0068 H   0  0  0  0  0  0  0  0  0  0  0  0
    2.8662    0.2609    0.0835 Br  0  0  0  0  0 15  0  0  0  0  0  0
   -2.9462    0.9996    0.5004 C   0  0  0  0  0  0  0  0  0  0  0  0
   -2.8853    1.9077   -0.0469 H   0  0  0  0  0  0  0  0  0  0  0  0
   -2.7837    1.4423    1.5401 H   0  0  0  0  0  0  0  0  0  0  0  0
   -4.1804   -0.0269    0.3629 C   0  0  0  0  0  0  0  0  0  0  0  0
   -5.1202    0.3936   -0.1937 H   0  0  0  0  0  0  0  0  0  0  0  0
   -4.6404   -0.2595    1.3694 H   0  0  0  0  0  0  0  0  0  0  0  0
   -3.9134   -1.1018   -0.2957 O   0  0  0  0  0  0  0  0  0  0  0  0
  1  8  1  0  0  0  0
  1  3  1  0  0  0  0
  2  1  1  0  0  0  0
  4 14  1  0  0  0  0
  4  1  1  0  0  0  0
  5  4  1  0  0  0  0
  6  4  1  0  0  0  0
  8 10  1  0  0  0  0
  9  8  1  0  0  0  0
 11  8  1  0  0  0  0
 11 13  1  0  0  0  0
 12 11  1  0  0  0  0
 14 11  1  0  0  0  0
M  END
$$$$
Title Card Required
 OpenBabel06272217483D

 14 13  0  0  0  0  0  0  0  0999 V2000
   -1.8325   -0.1603   -0.0679 C   0  0  0  0  0  0  0  0  0  0  0  0
   -0.6922   -0.1344   -0.3701 H   0  0  0  0  0  0  0  0  0  0  0  0
   -1.7646   -0.9698    0.7716 H   0  0  0  0  0  0  0  0  0  0  0  0
   -2.7285   -1.0080   -0.9483 C   0  0  0  0  0  0  0  0  0  0  0  0
   -2.2482   -2.0386   -1.0016 H   0  0  0  0  0  0  0  0  0  0  0  0
   -2.9064   -0.8909   -1.9834 H   0  0  0  0  0  0  0  0  0  0  0  0
    2.8663    0.2617    0.0835 Br  0  0  0  0  0 15  0  0  0  0  0  0
   -2.9552    0.9850    0.4920 C   0  0  0  0  0  0  0  0  0  0  0  0
   -2.9199    1.9379   -0.0076 H   0  0  0  0  0  0  0  0  0  0  0  0
   -2.7443    1.4098    1.5167 H   0  0  0  0  0  0  0  0  0  0  0  0
   -4.1806   -0.0047    0.3784 C   0  0  0  0  0  0  0  0  0  0  0  0
   -5.0322    0.3953   -0.2317 H   0  0  0  0  0  0  0  0  0  0  0  0
   -4.7058   -0.1887    1.3970 H   0  0  0  0  0  0  0  0  0  0  0  0
   -3.9169   -1.1200   -0.3084 O   0  0  0  0  0  0  0  0  0  0  0  0
  1  8  1  0  0  0  0
  1  3  1  0  0  0  0
  2  1  1  0  0  0  0
  4 14  1  0  0  0  0
  4  1  1  0  0  0  0
  5  4  1  0  0  0  0
  6  4  1  0  0  0  0
  8 10  1  0  0  0  0
  9  8  1  0  0  0  0
 11  8  1  0  0  0  0
 11 13  1  0  0  0  0
 12 11  1  0  0  0  0
 14 11  1  0  0  0  0
M  END
$$$$
Title Card Required
 OpenBabel06272217483D

 14 13  0  0  0  0  0  0  0  0999 V2000
   -1.8175   -0.1611   -0.0691 C   0  0  0  0  0  0  0  0  0  0  0  0
   -0.6423   -0.1267   -0.3948 H   0  0  0  0  0  0  0  0  0  0  0  0
   -1.7738   -0.9942    0.7620 H   0  0  0  0  0  0  0  0  0  0  0  0
   -2.7358   -1.0006   -0.9337 C   0  0  0  0  0  0  0  0  0  0  0  0
   -2.2478   -2.0862   -1.0242 H   0  0  0  0  0  0  0  0  0  0  0  0
   -2.9028   -0.8149   -1.9819 H   0  0  0  0  0  0  0  0  0  0  0  0
    2.8664    0.2625    0.0836 Br  0  0  0  0  0 15  0  0  0  0  0  0
   -2.9620    0.9677    0.4840 C   0  0  0  0  0  0  0  0  0  0  0  0
   -2.9616    1.9705    0.0131 H   0  0  0  0  0  0  0  0  0  0  0  0
   -2.7058    1.3605    1.4888 H   0  0  0  0  0  0  0  0  0  0  0  0
   -4.1841    0.0216    0.3958 C   0  0  0  0  0  0  0  0  0  0  0  0
   -4.9404    0.4110   -0.2629 H   0  0  0  0  0  0  0  0  0  0  0  0
   -4.7571   -0.1187    1.4113 H   0  0  0  0  0  0  0  0  0  0  0  0
   -3.9205   -1.1405   -0.3208 O   0  0  0  0  0  0  0  0  0  0  0  0
  1  8  1  0  0  0  0
  1  3  1  0  0  0  0
  2  1  1  0  0  0  0
  4 14  1  0  0  0  0
  4  1  1  0  0  0  0
  5  4  1  0  0  0  0
  6  4  1  0  0  0  0
  8 10  1  0  0  0  0
  9  8  1  0  0  0  0
 11  8  1  0  0  0  0
 11 13  1  0  0  0  0
 12 11  1  0  0  0  0
 14 11  1  0  0  0  0
M  END
$$$$
Title Card Required
 OpenBabel06272217483D

 14 13  0  0  0  0  0  0  0  0999 V2000
   -1.8016   -0.1632   -0.0686 C   0  0  0  0  0  0  0  0  0  0  0  0
   -0.6286   -0.1058   -0.4119 H   0  0  0  0  0  0  0  0  0  0  0  0
   -1.7800   -0.9921    0.7451 H   0  0  0  0  0  0  0  0  0  0  0  0
   -2.7395   -0.9971   -0.9207 C   0  0  0  0  0  0  0  0  0  0  0  0
   -2.2571   -2.1111   -1.0441 H   0  0  0  0  0  0  0  0  0  0  0  0
   -2.8973   -0.7210   -1.9935 H   0  0  0  0  0  0  0  0  0  0  0  0
    2.8664    0.2633    0.0836 Br  0  0  0  0  0 15  0  0  0  0  0  0
   -2.9658    0.9485    0.4759 C   0  0  0  0  0  0  0  0  0  0  0  0
   -3.0098    1.9940    0.0196 H   0  0  0  0  0  0  0  0  0  0  0  0
   -2.6678    1.2964    1.4632 H   0  0  0  0  0  0  0  0  0  0  0  0
   -4.1901    0.0504    0.4148 C   0  0  0  0  0  0  0  0  0  0  0  0
   -4.8578    0.4472   -0.2951 H   0  0  0  0  0  0  0  0  0  0  0  0
   -4.7914   -0.0515    1.4069 H   0  0  0  0  0  0  0  0  0  0  0  0
   -3.9250   -1.1625   -0.3316 O   0  0  0  0  0  0  0  0  0  0  0  0
  1  8  1  0  0  0  0
  1  3  1  0  0  0  0
  2  1  1  0  0  0  0
  4 14  1  0  0  0  0
  4  1  1  0  0  0  0
  5  4  1  0  0  0  0
  6  4  1  0  0  0  0
  8 10  1  0  0  0  0
  9  8  1  0  0  0  0
 11  8  1  0  0  0  0
 11 13  1  0  0  0  0
 12 11  1  0  0  0  0
 14 11  1  0  0  0  0
M  END
$$$$
Title Card Required
 OpenBabel06272217483D

 14 13  0  0  0  0  0  0  0  0999 V2000
   -1.7861   -0.1666   -0.0669 C   0  0  0  0  0  0  0  0  0  0  0  0
   -0.6535   -0.0737   -0.4196 H   0  0  0  0  0  0  0  0  0  0  0  0
   -1.7802   -0.9647    0.7261 H   0  0  0  0  0  0  0  0  0  0  0  0
   -2.7393   -0.9975   -0.9116 C   0  0  0  0  0  0  0  0  0  0  0  0
   -2.2772   -2.1054   -1.0613 H   0  0  0  0  0  0  0  0  0  0  0  0
   -2.8881   -0.6186   -2.0021 H   0  0  0  0  0  0  0  0  0  0  0  0
    2.8664    0.2641    0.0836 Br  0  0  0  0  0 15  0  0  0  0  0  0
   -2.9662    0.9291    0.4676 C   0  0  0  0  0  0  0  0  0  0  0  0
   -3.0604    1.9966    0.0171 H   0  0  0  0  0  0  0  0  0  0  0  0
   -2.6305    1.2238    1.4474 H   0  0  0  0  0  0  0  0  0  0  0  0
   -4.1976    0.0794    0.4342 C   0  0  0  0  0  0  0  0  0  0  0  0
   -4.7960    0.5056   -0.3334 H   0  0  0  0  0  0  0  0  0  0  0  0
   -4.8086    0.0088    1.3842 H   0  0  0  0  0  0  0  0  0  0  0  0
   -3.9306   -1.1844   -0.3399 O   0  0  0  0  0  0  0  0  0  0  0  0
  1  8  1  0  0  0  0
  1  3  1  0  0  0  0
  2  1  1  0  0  0  0
  4 14  1  0  0  0  0
  4  1  1  0  0  0  0
  5  4  1  0  0  0  0
  6  4  1  0  0  0  0
  8 10  1  0  0  0  0
  9  8  1  0  0  0  0
 11  8  1  0  0  0  0
 11 13  1  0  0  0  0
 12 11  1  0  0  0  0
 14 11  1  0  0  0  0
M  END
$$$$
Title Card Required
 OpenBabel06272217483D

 14 13  0  0  0  0  0  0  0  0999 V2000
   -1.7723   -0.1707   -0.0646 C   0  0  0  0  0  0  0  0  0  0  0  0
   -0.7084   -0.0329   -0.4196 H   0  0  0  0  0  0  0  0  0  0  0  0
   -1.7721   -0.9212    0.7143 H   0  0  0  0  0  0  0  0  0  0  0  0
   -2.7355   -1.0008   -0.9080 C   0  0  0  0  0  0  0  0  0  0  0  0
   -2.3059   -2.0710   -1.0767 H   0  0  0  0  0  0  0  0  0  0  0  0
   -2.8746   -0.5191   -1.9952 H   0  0  0  0  0  0  0  0  0  0  0  0
    2.8664    0.2648    0.0837 Br  0  0  0  0  0 15  0  0  0  0  0  0
   -2.9630    0.9107    0.4593 C   0  0  0  0  0  0  0  0  0  0  0  0
   -3.1079    1.9734    0.0102 H   0  0  0  0  0  0  0  0  0  0  0  0
   -2.5944    1.1498    1.4451 H   0  0  0  0  0  0  0  0  0  0  0  0
   -4.2060    0.1070    0.4515 C   0  0  0  0  0  0  0  0  0  0  0  0
   -4.7547    0.5785   -0.3738 H   0  0  0  0  0  0  0  0  0  0  0  0
   -4.8145    0.0589    1.3517 H   0  0  0  0  0  0  0  0  0  0  0  0
   -3.9374   -1.2050   -0.3448 O   0  0  0  0  0  0  0  0  0  0  0  0
  1  8  1  0  0  0  0
  1  3  1  0  0  0  0
  2  1  1  0  0  0  0
  4 14  1  0  0  0  0
  4  1  1  0  0  0  0
  5  4  1  0  0  0  0
  6  4  1  0  0  0  0
  8 10  1  0  0  0  0
  9  8  1  0  0  0  0
 11  8  1  0  0  0  0
 11 13  1  0  0  0  0
 12 11  1  0  0  0  0
 14 11  1  0  0  0  0
M  END
$$$$
Title Card Required
 OpenBabel06272217483D

 14 13  0  0  0  0  0  0  0  0999 V2000
   -1.7618   -0.1750   -0.0624 C   0  0  0  0  0  0  0  0  0  0  0  0
   -0.7772    0.0171   -0.4171 H   0  0  0  0  0  0  0  0  0  0  0  0
   -1.7541   -0.8733    0.7212 H   0  0  0  0  0  0  0  0  0  0  0  0
   -2.7290   -1.0056   -0.9096 C   0  0  0  0  0  0  0  0  0  0  0  0
   -2.3386   -2.0169   -1.0934 H   0  0  0  0  0  0  0  0  0  0  0  0
   -2.8569   -0.4282   -1.9673 H   0  0  0  0  0  0  0  0  0  0  0  0
    2.8663    0.2656    0.0837 Br  0  0  0  0  0 15  0  0  0  0  0  0
   -2.9558    0.8933    0.4513 C   0  0  0  0  0  0  0  0  0  0  0  0
   -3.1483    1.9255    0.0018 H   0  0  0  0  0  0  0  0  0  0  0  0
   -2.5598    1.0771    1.4541 H   0  0  0  0  0  0  0  0  0  0  0  0
   -4.2151    0.1337    0.4646 C   0  0  0  0  0  0  0  0  0  0  0  0
   -4.7264    0.6564   -0.4065 H   0  0  0  0  0  0  0  0  0  0  0  0
   -4.8192    0.0989    1.3225 H   0  0  0  0  0  0  0  0  0  0  0  0
   -3.9453   -1.2241   -0.3466 O   0  0  0  0  0  0  0  0  0  0  0  0
  1  8  1  0  0  0  0
  1  3  1  0  0  0  0
  2  1  1  0  0  0  0
  4 14  1  0  0  0  0
  4  1  1  0  0  0  0
  5  4  1  0  0  0  0
  6  4  1  0  0  0  0
  8 11  1  0  0  0  0
  8 10  1  0  0  0  0
  9  8  1  0  0  0  0
 11 13  1  0  0  0  0
 12 11  1  0  0  0  0
 14 11  1  0  0  0  0
M  END
$$$$
Title Card Required
 OpenBabel06272217483D

 14 13  0  0  0  0  0  0  0  0999 V2000
   -1.7570   -0.1791   -0.0604 C   0  0  0  0  0  0  0  0  0  0  0  0
   -0.8365    0.0824   -0.4214 H   0  0  0  0  0  0  0  0  0  0  0  0
   -1.7228   -0.8301    0.7585 H   0  0  0  0  0  0  0  0  0  0  0  0
   -2.7205   -1.0098   -0.9165 C   0  0  0  0  0  0  0  0  0  0  0  0
   -2.3679   -1.9609   -1.1172 H   0  0  0  0  0  0  0  0  0  0  0  0
   -2.8353   -0.3497   -1.9151 H   0  0  0  0  0  0  0  0  0  0  0  0
    2.8662    0.2664    0.0837 Br  0  0  0  0  0 15  0  0  0  0  0  0
   -2.9440    0.8760    0.4444 C   0  0  0  0  0  0  0  0  0  0  0  0
   -3.1776    1.8567   -0.0080 H   0  0  0  0  0  0  0  0  0  0  0  0
   -2.5280    1.0066    1.4689 H   0  0  0  0  0  0  0  0  0  0  0  0
   -4.2250    0.1603    0.4709 C   0  0  0  0  0  0  0  0  0  0  0  0
   -4.7059    0.7316   -0.4216 H   0  0  0  0  0  0  0  0  0  0  0  0
   -4.8346    0.1292    1.3112 H   0  0  0  0  0  0  0  0  0  0  0  0
   -3.9545   -1.2420   -0.3451 O   0  0  0  0  0  0  0  0  0  0  0  0
  1  8  1  0  0  0  0
  1  3  1  0  0  0  0
  2  1  1  0  0  0  0
  4 14  1  0  0  0  0
  4  1  1  0  0  0  0
  5  4  1  0  0  0  0
  6  4  1  0  0  0  0
  8 11  1  0  0  0  0
  8 10  1  0  0  0  0
  9  8  1  0  0  0  0
 11 13  1  0  0  0  0
 12 11  1  0  0  0  0
 14 11  1  0  0  0  0
M  END
$$$$
Title Card Required
 OpenBabel06272217483D

 14 13  0  0  0  0  0  0  0  0999 V2000
   -1.7605   -0.1836   -0.0580 C   0  0  0  0  0  0  0  0  0  0  0  0
   -0.8617    0.1675   -0.4420 H   0  0  0  0  0  0  0  0  0  0  0  0
   -1.6757   -0.7958    0.8266 H   0  0  0  0  0  0  0  0  0  0  0  0
   -2.7118   -1.0103   -0.9273 C   0  0  0  0  0  0  0  0  0  0  0  0
   -2.3799   -1.9358   -1.1568 H   0  0  0  0  0  0  0  0  0  0  0  0
   -2.8119   -0.2911   -1.8420 H   0  0  0  0  0  0  0  0  0  0  0  0
    2.8661    0.2673    0.0837 Br  0  0  0  0  0 15  0  0  0  0  0  0
   -2.9270    0.8581    0.4404 C   0  0  0  0  0  0  0  0  0  0  0  0
   -3.1897    1.7824   -0.0218 H   0  0  0  0  0  0  0  0  0  0  0  0
   -2.5039    0.9446    1.4814 H   0  0  0  0  0  0  0  0  0  0  0  0
   -4.2350    0.1861    0.4682 C   0  0  0  0  0  0  0  0  0  0  0  0
   -4.6933    0.7928   -0.4108 H   0  0  0  0  0  0  0  0  0  0  0  0
   -4.8658    0.1486    1.3255 H   0  0  0  0  0  0  0  0  0  0  0  0
   -3.9646   -1.2577   -0.3403 O   0  0  0  0  0  0  0  0  0  0  0  0
  1  8  1  0  0  0  0
  1  3  1  0  0  0  0
  2  1  1  0  0  0  0
  4 14  1  0  0  0  0
  4  1  1  0  0  0  0
  5  4  1  0  0  0  0
  6  4  1  0  0  0  0
  8 11  1  0  0  0  0
  8 10  1  0  0  0  0
  9  8  1  0  0  0  0
 11 13  1  0  0  0  0
 12 11  1  0  0  0  0
 14 11  1  0  0  0  0
M  END
$$$$
Title Card Required
 OpenBabel06272217483D

 14 13  0  0  0  0  0  0  0  0999 V2000
   -1.7711   -0.1887   -0.0543 C   0  0  0  0  0  0  0  0  0  0  0  0
   -0.8592    0.2624   -0.4745 H   0  0  0  0  0  0  0  0  0  0  0  0
   -1.6162   -0.7653    0.9029 H   0  0  0  0  0  0  0  0  0  0  0  0
   -2.7044   -1.0059   -0.9395 C   0  0  0  0  0  0  0  0  0  0  0  0
   -2.3690   -1.9573   -1.2143 H   0  0  0  0  0  0  0  0  0  0  0  0
   -2.7912   -0.2558   -1.7636 H   0  0  0  0  0  0  0  0  0  0  0  0
    2.8659    0.2681    0.0837 Br  0  0  0  0  0 15  0  0  0  0  0  0
   -2.9062    0.8393    0.4405 C   0  0  0  0  0  0  0  0  0  0  0  0
   -3.1818    1.7272   -0.0440 H   0  0  0  0  0  0  0  0  0  0  0  0
   -2.4916    0.8997    1.4852 H   0  0  0  0  0  0  0  0  0  0  0  0
   -4.2450    0.2088    0.4579 C   0  0  0  0  0  0  0  0  0  0  0  0
   -4.6914    0.8324   -0.3767 H   0  0  0  0  0  0  0  0  0  0  0  0
   -4.9021    0.1574    1.3526 H   0  0  0  0  0  0  0  0  0  0  0  0
   -3.9745   -1.2697   -0.3331 O   0  0  0  0  0  0  0  0  0  0  0  0
  1  8  1  0  0  0  0
  1  3  1  0  0  0  0
  2  1  1  0  0  0  0
  4 14  1  0  0  0  0
  4  1  1  0  0  0  0
  5  4  1  0  0  0  0
  6  4  1  0  0  0  0
  8 11  1  0  0  0  0
  8 10  1  0  0  0  0
  9  8  1  0  0  0  0
 11 13  1  0  0  0  0
 12 11  1  0  0  0  0
 14 11  1  0  0  0  0
M  END
$$$$
Title Card Required
 OpenBabel06272217483D

 14 13  0  0  0  0  0  0  0  0999 V2000
   -1.7851   -0.1943   -0.0488 C   0  0  0  0  0  0  0  0  0  0  0  0
   -0.8571    0.3539   -0.5064 H   0  0  0  0  0  0  0  0  0  0  0  0
   -1.5472   -0.7299    0.9656 H   0  0  0  0  0  0  0  0  0  0  0  0
   -2.6982   -0.9993   -0.9518 C   0  0  0  0  0  0  0  0  0  0  0  0
   -2.3445   -2.0027   -1.2850 H   0  0  0  0  0  0  0  0  0  0  0  0
   -2.7767   -0.2342   -1.6951 H   0  0  0  0  0  0  0  0  0  0  0  0
    2.8657    0.2689    0.0837 Br  0  0  0  0  0 15  0  0  0  0  0  0
   -2.8823    0.8187    0.4452 C   0  0  0  0  0  0  0  0  0  0  0  0
   -3.1536    1.7004   -0.0774 H   0  0  0  0  0  0  0  0  0  0  0  0
   -2.4906    0.8740    1.4806 H   0  0  0  0  0  0  0  0  0  0  0  0
   -4.2555    0.2282    0.4427 C   0  0  0  0  0  0  0  0  0  0  0  0
   -4.7034    0.8545   -0.3287 H   0  0  0  0  0  0  0  0  0  0  0  0
   -4.9301    0.1584    1.3741 H   0  0  0  0  0  0  0  0  0  0  0  0
   -3.9840   -1.2782   -0.3239 O   0  0  0  0  0  0  0  0  0  0  0  0
  1  8  1  0  0  0  0
  1  3  1  0  0  0  0
  2  1  1  0  0  0  0
  4 14  1  0  0  0  0
  4  1  1  0  0  0  0
  5  4  1  0  0  0  0
  6  4  1  0  0  0  0
  8 10  1  0  0  0  0
  9  8  1  0  0  0  0
 11  8  1  0  0  0  0
 11 13  1  0  0  0  0
 12 11  1  0  0  0  0
 14 11  1  0  0  0  0
M  END
$$$$
Title Card Required
 OpenBabel06272217483D

 14 13  0  0  0  0  0  0  0  0999 V2000
   -1.8004   -0.2001   -0.0406 C   0  0  0  0  0  0  0  0  0  0  0  0
   -0.8781    0.4301   -0.5282 H   0  0  0  0  0  0  0  0  0  0  0  0
   -1.4696   -0.6845    0.9986 H   0  0  0  0  0  0  0  0  0  0  0  0
   -2.6921   -0.9942   -0.9635 C   0  0  0  0  0  0  0  0  0  0  0  0
   -2.3177   -2.0405   -1.3626 H   0  0  0  0  0  0  0  0  0  0  0  0
   -2.7724   -0.2116   -1.6532 H   0  0  0  0  0  0  0  0  0  0  0  0
    2.8655    0.2698    0.0837 Br  0  0  0  0  0 15  0  0  0  0  0  0
   -2.8552    0.7954    0.4540 C   0  0  0  0  0  0  0  0  0  0  0  0
   -3.0986    1.6981   -0.1206 H   0  0  0  0  0  0  0  0  0  0  0  0
   -2.4994    0.8703    1.4732 H   0  0  0  0  0  0  0  0  0  0  0  0
   -4.2671    0.2439    0.4244 C   0  0  0  0  0  0  0  0  0  0  0  0
   -4.7369    0.8686   -0.2797 H   0  0  0  0  0  0  0  0  0  0  0  0
   -4.9397    0.1532    1.3770 H   0  0  0  0  0  0  0  0  0  0  0  0
   -3.9932   -1.2833   -0.3126 O   0  0  0  0  0  0  0  0  0  0  0  0
  1  8  1  0  0  0  0
  1  3  1  0  0  0  0
  2  1  1  0  0  0  0
  4 14  1  0  0  0  0
  4  1  1  0  0  0  0
  5  4  1  0  0  0  0
  6  4  1  0  0  0  0
  8 10  1  0  0  0  0
  9  8  1  0  0  0  0
 11  8  1  0  0  0  0
 11 13  1  0  0  0  0
 12 11  1  0  0  0  0
 14 11  1  0  0  0  0
M  END
$$$$
Title Card Required
 OpenBabel06272217483D

 14 13  0  0  0  0  0  0  0  0999 V2000
   -1.8138   -0.2052   -0.0296 C   0  0  0  0  0  0  0  0  0  0  0  0
   -0.9336    0.4744   -0.5320 H   0  0  0  0  0  0  0  0  0  0  0  0
   -1.3909   -0.6320    0.9875 H   0  0  0  0  0  0  0  0  0  0  0  0
   -2.6863   -0.9940   -0.9736 C   0  0  0  0  0  0  0  0  0  0  0  0
   -2.2999   -2.0424   -1.4339 H   0  0  0  0  0  0  0  0  0  0  0  0
   -2.7828   -0.1789   -1.6547 H   0  0  0  0  0  0  0  0  0  0  0  0
    2.8652    0.2707    0.0837 Br  0  0  0  0  0 15  0  0  0  0  0  0
   -2.8280    0.7717    0.4651 C   0  0  0  0  0  0  0  0  0  0  0  0
   -3.0123    1.7057   -0.1612 H   0  0  0  0  0  0  0  0  0  0  0  0
   -2.5144    0.8931    1.4749 H   0  0  0  0  0  0  0  0  0  0  0  0
   -4.2783    0.2535    0.4056 C   0  0  0  0  0  0  0  0  0  0  0  0
   -4.7988    0.8865   -0.2496 H   0  0  0  0  0  0  0  0  0  0  0  0
   -4.9235    0.1423    1.3538 H   0  0  0  0  0  0  0  0  0  0  0  0
   -4.0017   -1.2839   -0.2998 O   0  0  0  0  0  0  0  0  0  0  0  0
  1  8  1  0  0  0  0
  1  3  1  0  0  0  0
  2  1  1  0  0  0  0
  4 14  1  0  0  0  0
  4  1  1  0  0  0  0
  5  4  1  0  0  0  0
  6  4  1  0  0  0  0
  8 10  1  0  0  0  0
  9  8  1  0  0  0  0
 11  8  1  0  0  0  0
 11 13  1  0  0  0  0
 12 11  1  0  0  0  0
 14 11  1  0  0  0  0
M  END
$$$$
Title Card Required
 OpenBabel06272217483D

 14 13  0  0  0  0  0  0  0  0999 V2000
   -1.8228   -0.2093   -0.0177 C   0  0  0  0  0  0  0  0  0  0  0  0
   -1.0130    0.4803   -0.5195 H   0  0  0  0  0  0  0  0  0  0  0  0
   -1.3232   -0.5850    0.9376 H   0  0  0  0  0  0  0  0  0  0  0  0
   -2.6815   -0.9984   -0.9819 C   0  0  0  0  0  0  0  0  0  0  0  0
   -2.2964   -2.0032   -1.4850 H   0  0  0  0  0  0  0  0  0  0  0  0
   -2.8056   -0.1476   -1.6890 H   0  0  0  0  0  0  0  0  0  0  0  0
    2.8649    0.2716    0.0837 Br  0  0  0  0  0 15  0  0  0  0  0  0
   -2.8057    0.7519    0.4756 C   0  0  0  0  0  0  0  0  0  0  0  0
   -2.9075    1.7053   -0.1842 H   0  0  0  0  0  0  0  0  0  0  0  0
   -2.5303    0.9371    1.4933 H   0  0  0  0  0  0  0  0  0  0  0  0
   -4.2869    0.2562    0.3887 C   0  0  0  0  0  0  0  0  0  0  0  0
   -4.8773    0.9093   -0.2450 H   0  0  0  0  0  0  0  0  0  0  0  0
   -4.8876    0.1266    1.3139 H   0  0  0  0  0  0  0  0  0  0  0  0
   -4.0082   -1.2801   -0.2874 O   0  0  0  0  0  0  0  0  0  0  0  0
  1  8  1  0  0  0  0
  1  3  1  0  0  0  0
  2  1  1  0  0  0  0
  4 14  1  0  0  0  0
  4  1  1  0  0  0  0
  5  4  1  0  0  0  0
  6  4  1  0  0  0  0
  8 10  1  0  0  0  0
  9  8  1  0  0  0  0
 11  8  1  0  0  0  0
 11 13  1  0  0  0  0
 12 11  1  0  0  0  0
 14 11  1  0  0  0  0
M  END
$$$$
Title Card Required
 OpenBabel06272217483D

 14 13  0  0  0  0  0  0  0  0999 V2000
   -1.8278   -0.2127   -0.0062 C   0  0  0  0  0  0  0  0  0  0  0  0
   -1.1002    0.4594   -0.5000 H   0  0  0  0  0  0  0  0  0  0  0  0
   -1.2654   -0.5515    0.8681 H   0  0  0  0  0  0  0  0  0  0  0  0
   -2.6784   -1.0044   -0.9892 C   0  0  0  0  0  0  0  0  0  0  0  0
   -2.3039   -1.9375   -1.5166 H   0  0  0  0  0  0  0  0  0  0  0  0
   -2.8347   -0.1321   -1.7330 H   0  0  0  0  0  0  0  0  0  0  0  0
    2.8646    0.2724    0.0836 Br  0  0  0  0  0 15  0  0  0  0  0  0
   -2.7888    0.7373    0.4850 C   0  0  0  0  0  0  0  0  0  0  0  0
   -2.7962    1.6904   -0.1873 H   0  0  0  0  0  0  0  0  0  0  0  0
   -2.5466    0.9932    1.5219 H   0  0  0  0  0  0  0  0  0  0  0  0
   -4.2928    0.2540    0.3722 C   0  0  0  0  0  0  0  0  0  0  0  0
   -4.9546    0.9274   -0.2528 H   0  0  0  0  0  0  0  0  0  0  0  0
   -4.8448    0.1059    1.2741 H   0  0  0  0  0  0  0  0  0  0  0  0
   -4.0131   -1.2727   -0.2758 O   0  0  0  0  0  0  0  0  0  0  0  0
  1  8  1  0  0  0  0
  1  3  1  0  0  0  0
  2  1  1  0  0  0  0
  4 14  1  0  0  0  0
  4  1  1  0  0  0  0
  5  4  1  0  0  0  0
  6  4  1  0  0  0  0
  8 10  1  0  0  0  0
  9  8  1  0  0  0  0
 11  8  1  0  0  0  0
 11 13  1  0  0  0  0
 12 11  1  0  0  0  0
 14 11  1  0  0  0  0
M  END
$$$$
Title Card Required
 OpenBabel06272217483D

 14 13  0  0  0  0  0  0  0  0999 V2000
   -1.8308   -0.2169    0.0044 C   0  0  0  0  0  0  0  0  0  0  0  0
   -1.1825    0.4264   -0.4852 H   0  0  0  0  0  0  0  0  0  0  0  0
   -1.2074   -0.5371    0.7937 H   0  0  0  0  0  0  0  0  0  0  0  0
   -2.6774   -1.0099   -0.9964 C   0  0  0  0  0  0  0  0  0  0  0  0
   -2.3173   -1.8600   -1.5368 H   0  0  0  0  0  0  0  0  0  0  0  0
   -2.8678   -0.1399   -1.7749 H   0  0  0  0  0  0  0  0  0  0  0  0
    2.8642    0.2732    0.0836 Br  0  0  0  0  0 15  0  0  0  0  0  0
   -2.7764    0.7274    0.4950 C   0  0  0  0  0  0  0  0  0  0  0  0
   -2.6801    1.6600   -0.1720 H   0  0  0  0  0  0  0  0  0  0  0  0
   -2.5655    1.0568    1.5510 H   0  0  0  0  0  0  0  0  0  0  0  0
   -4.2964    0.2484    0.3531 C   0  0  0  0  0  0  0  0  0  0  0  0
   -5.0215    0.9322   -0.2623 H   0  0  0  0  0  0  0  0  0  0  0  0
   -4.8038    0.0773    1.2484 H   0  0  0  0  0  0  0  0  0  0  0  0
   -4.0166   -1.2617   -0.2644 O   0  0  0  0  0  0  0  0  0  0  0  0
  1  8  1  0  0  0  0
  1  3  1  0  0  0  0
  2  1  1  0  0  0  0
  4 14  1  0  0  0  0
  4  1  1  0  0  0  0
  5  4  1  0  0  0  0
  6  4  1  0  0  0  0
  8 10  1  0  0  0  0
  9  8  1  0  0  0  0
 11  8  1  0  0  0  0
 11 13  1  0  0  0  0
 12 11  1  0  0  0  0
 14 11  1  0  0  0  0
M  END
$$$$
Title Card Required
 OpenBabel06272217483D

 14 13  0  0  0  0  0  0  0  0999 V2000
   -1.8338   -0.2240    0.0144 C   0  0  0  0  0  0  0  0  0  0  0  0
   -1.2390    0.4013   -0.4953 H   0  0  0  0  0  0  0  0  0  0  0  0
   -1.1367   -0.5516    0.7277 H   0  0  0  0  0  0  0  0  0  0  0  0
   -2.6799   -1.0121   -1.0029 C   0  0  0  0  0  0  0  0  0  0  0  0
   -2.3280   -1.7939   -1.5578 H   0  0  0  0  0  0  0  0  0  0  0  0
   -2.9037   -0.1766   -1.8073 H   0  0  0  0  0  0  0  0  0  0  0  0
    2.8638    0.2741    0.0836 Br  0  0  0  0  0 15  0  0  0  0  0  0
   -2.7684    0.7229    0.5074 C   0  0  0  0  0  0  0  0  0  0  0  0
   -2.5612    1.6157   -0.1388 H   0  0  0  0  0  0  0  0  0  0  0  0
   -2.5897    1.1227    1.5705 H   0  0  0  0  0  0  0  0  0  0  0  0
   -4.2973    0.2393    0.3286 C   0  0  0  0  0  0  0  0  0  0  0  0
   -5.0695    0.9160   -0.2677 H   0  0  0  0  0  0  0  0  0  0  0  0
   -4.7702    0.0373    1.2490 H   0  0  0  0  0  0  0  0  0  0  0  0
   -4.0189   -1.2460   -0.2527 O   0  0  0  0  0  0  0  0  0  0  0  0
  1  8  1  0  0  0  0
  1  3  1  0  0  0  0
  2  1  1  0  0  0  0
  4 14  1  0  0  0  0
  4  1  1  0  0  0  0
  5  4  1  0  0  0  0
  6  4  1  0  0  0  0
  8 10  1  0  0  0  0
  9  8  1  0  0  0  0
 11  8  1  0  0  0  0
 11 13  1  0  0  0  0
 12 11  1  0  0  0  0
 14 11  1  0  0  0  0
M  END
$$$$
Title Card Required
 OpenBabel06272217483D

 14 13  0  0  0  0  0  0  0  0999 V2000
   -1.8374   -0.2354    0.0228 C   0  0  0  0  0  0  0  0  0  0  0  0
   -1.2481    0.4015   -0.5455 H   0  0  0  0  0  0  0  0  0  0  0  0
   -1.0565   -0.5983    0.6809 H   0  0  0  0  0  0  0  0  0  0  0  0
   -2.6871   -1.0084   -1.0067 C   0  0  0  0  0  0  0  0  0  0  0  0
   -2.3245   -1.7739   -1.5914 H   0  0  0  0  0  0  0  0  0  0  0  0
   -2.9378   -0.2371   -1.8223 H   0  0  0  0  0  0  0  0  0  0  0  0
    2.8634    0.2750    0.0836 Br  0  0  0  0  0 15  0  0  0  0  0  0
   -2.7658    0.7247    0.5227 C   0  0  0  0  0  0  0  0  0  0  0  0
   -2.4570    1.5705   -0.0960 H   0  0  0  0  0  0  0  0  0  0  0  0
   -2.6182    1.1768    1.5710 H   0  0  0  0  0  0  0  0  0  0  0  0
   -4.2955    0.2270    0.3009 C   0  0  0  0  0  0  0  0  0  0  0  0
   -5.0874    0.8763   -0.2661 H   0  0  0  0  0  0  0  0  0  0  0  0
   -4.7456   -0.0087    1.2724 H   0  0  0  0  0  0  0  0  0  0  0  0
   -4.0196   -1.2265   -0.2419 O   0  0  0  0  0  0  0  0  0  0  0  0
  1  8  1  0  0  0  0
  1  3  1  0  0  0  0
  2  1  1  0  0  0  0
  4 14  1  0  0  0  0
  4  1  1  0  0  0  0
  5  4  1  0  0  0  0
  6  4  1  0  0  0  0
  8 10  1  0  0  0  0
  9  8  1  0  0  0  0
 11  8  1  0  0  0  0
 11 13  1  0  0  0  0
 12 11  1  0  0  0  0
 14 11  1  0  0  0  0
M  END
$$$$
Title Card Required
 OpenBabel06272217483D

 14 13  0  0  0  0  0  0  0  0999 V2000
   -1.8393   -0.2496    0.0290 C   0  0  0  0  0  0  0  0  0  0  0  0
   -1.2252    0.4120   -0.6177 H   0  0  0  0  0  0  0  0  0  0  0  0
   -0.9851   -0.6639    0.6453 H   0  0  0  0  0  0  0  0  0  0  0  0
   -2.6982   -1.0003   -1.0075 C   0  0  0  0  0  0  0  0  0  0  0  0
   -2.3092   -1.7976   -1.6302 H   0  0  0  0  0  0  0  0  0  0  0  0
   -2.9680   -0.3043   -1.8230 H   0  0  0  0  0  0  0  0  0  0  0  0
    2.8629    0.2759    0.0835 Br  0  0  0  0  0 15  0  0  0  0  0  0
   -2.7679    0.7313    0.5399 C   0  0  0  0  0  0  0  0  0  0  0  0
   -2.3783    1.5404   -0.0554 H   0  0  0  0  0  0  0  0  0  0  0  0
   -2.6480    1.2111    1.5556 H   0  0  0  0  0  0  0  0  0  0  0  0
   -4.2918    0.2121    0.2742 C   0  0  0  0  0  0  0  0  0  0  0  0
   -5.0784    0.8215   -0.2610 H   0  0  0  0  0  0  0  0  0  0  0  0
   -4.7238   -0.0501    1.2964 H   0  0  0  0  0  0  0  0  0  0  0  0
   -4.0189   -1.2050   -0.2328 O   0  0  0  0  0  0  0  0  0  0  0  0
  1  8  1  0  0  0  0
  1  3  1  0  0  0  0
  2  1  1  0  0  0  0
  4 14  1  0  0  0  0
  4  1  1  0  0  0  0
  5  4  1  0  0  0  0
  6  4  1  0  0  0  0
  8 10  1  0  0  0  0
  9  8  1  0  0  0  0
 11  8  1  0  0  0  0
 11 13  1  0  0  0  0
 12 11  1  0  0  0  0
 14 11  1  0  0  0  0
M  END
$$$$
Title Card Required
 OpenBabel06272217483D

 14 13  0  0  0  0  0  0  0  0999 V2000
   -1.8370   -0.2656    0.0323 C   0  0  0  0  0  0  0  0  0  0  0  0
   -1.1923    0.4102   -0.6903 H   0  0  0  0  0  0  0  0  0  0  0  0
   -0.9348   -0.7390    0.6071 H   0  0  0  0  0  0  0  0  0  0  0  0
   -2.7123   -0.9910   -1.0062 C   0  0  0  0  0  0  0  0  0  0  0  0
   -2.2927   -1.8415   -1.6572 H   0  0  0  0  0  0  0  0  0  0  0  0
   -2.9984   -0.3648   -1.8200 H   0  0  0  0  0  0  0  0  0  0  0  0
    2.8625    0.2767    0.0835 Br  0  0  0  0  0 15  0  0  0  0  0  0
   -2.7739    0.7417    0.5591 C   0  0  0  0  0  0  0  0  0  0  0  0
   -2.3217    1.5310   -0.0215 H   0  0  0  0  0  0  0  0  0  0  0  0
   -2.6794    1.2280    1.5346 H   0  0  0  0  0  0  0  0  0  0  0  0
   -4.2859    0.1934    0.2498 C   0  0  0  0  0  0  0  0  0  0  0  0
   -5.0529    0.7591   -0.2595 H   0  0  0  0  0  0  0  0  0  0  0  0
   -4.6987   -0.0825    1.3055 H   0  0  0  0  0  0  0  0  0  0  0  0
   -4.0167   -1.1809   -0.2252 O   0  0  0  0  0  0  0  0  0  0  0  0
  1  8  1  0  0  0  0
  1  3  1  0  0  0  0
  2  1  1  0  0  0  0
  4 14  1  0  0  0  0
  4  1  1  0  0  0  0
  5  4  1  0  0  0  0
  6  4  1  0  0  0  0
  8 10  1  0  0  0  0
  9  8  1  0  0  0  0
 11  8  1  0  0  0  0
 11 13  1  0  0  0  0
 12 11  1  0  0  0  0
 14 11  1  0  0  0  0
M  END
$$$$
Title Card Required
 OpenBabel06272217483D

 14 13  0  0  0  0  0  0  0  0999 V2000
   -1.8286   -0.2830    0.0317 C   0  0  0  0  0  0  0  0  0  0  0  0
   -1.1626    0.3813   -0.7469 H   0  0  0  0  0  0  0  0  0  0  0  0
   -0.9172   -0.8176    0.5588 H   0  0  0  0  0  0  0  0  0  0  0  0
   -2.7287   -0.9833   -1.0030 C   0  0  0  0  0  0  0  0  0  0  0  0
   -2.2858   -1.8861   -1.6551 H   0  0  0  0  0  0  0  0  0  0  0  0
   -3.0334   -0.4046   -1.8273 H   0  0  0  0  0  0  0  0  0  0  0  0
    2.8619    0.2776    0.0835 Br  0  0  0  0  0 15  0  0  0  0  0  0
   -2.7831    0.7550    0.5795 C   0  0  0  0  0  0  0  0  0  0  0  0
   -2.2883    1.5443    0.0045 H   0  0  0  0  0  0  0  0  0  0  0  0
   -2.7124    1.2307    1.5242 H   0  0  0  0  0  0  0  0  0  0  0  0
   -4.2765    0.1691    0.2291 C   0  0  0  0  0  0  0  0  0  0  0  0
   -5.0253    0.7000   -0.2732 H   0  0  0  0  0  0  0  0  0  0  0  0
   -4.6685   -0.1016    1.2904 H   0  0  0  0  0  0  0  0  0  0  0  0
   -4.0130   -1.1538   -0.2190 O   0  0  0  0  0  0  0  0  0  0  0  0
  1  3  1  0  0  0  0
  1  8  1  0  0  0  0
  2  1  1  0  0  0  0
  4 14  1  0  0  0  0
  4  1  1  0  0  0  0
  5  4  1  0  0  0  0
  6  4  1  0  0  0  0
  8 10  1  0  0  0  0
  9  8  1  0  0  0  0
 11  8  1  0  0  0  0
 11 13  1  0  0  0  0
 12 11  1  0  0  0  0
 14 11  1  0  0  0  0
M  END
$$$$
Title Card Required
 OpenBabel06272217483D

 14 13  0  0  0  0  0  0  0  0999 V2000
   -1.8147   -0.2998    0.0264 C   0  0  0  0  0  0  0  0  0  0  0  0
   -1.1451    0.3232   -0.7724 H   0  0  0  0  0  0  0  0  0  0  0  0
   -0.9397   -0.8892    0.5038 H   0  0  0  0  0  0  0  0  0  0  0  0
   -2.7458   -0.9796   -0.9980 C   0  0  0  0  0  0  0  0  0  0  0  0
   -2.2968   -1.9149   -1.6141 H   0  0  0  0  0  0  0  0  0  0  0  0
   -3.0707   -0.4132   -1.8520 H   0  0  0  0  0  0  0  0  0  0  0  0
    2.8613    0.2785    0.0835 Br  0  0  0  0  0 15  0  0  0  0  0  0
   -2.7938    0.7693    0.5973 C   0  0  0  0  0  0  0  0  0  0  0  0
   -2.2836    1.5747    0.0227 H   0  0  0  0  0  0  0  0  0  0  0  0
   -2.7440    1.2246    1.5441 H   0  0  0  0  0  0  0  0  0  0  0  0
   -4.2629    0.1411    0.2152 C   0  0  0  0  0  0  0  0  0  0  0  0
   -5.0121    0.6610   -0.3117 H   0  0  0  0  0  0  0  0  0  0  0  0
   -4.6384   -0.1032    1.2525 H   0  0  0  0  0  0  0  0  0  0  0  0
   -4.0075   -1.1264   -0.2152 O   0  0  0  0  0  0  0  0  0  0  0  0
  1  3  1  0  0  0  0
  1  8  1  0  0  0  0
  2  1  1  0  0  0  0
  4 14  1  0  0  0  0
  4  1  1  0  0  0  0
  5  4  1  0  0  0  0
  6  4  1  0  0  0  0
  8 10  1  0  0  0  0
  9  8  1  0  0  0  0
 11  8  1  0  0  0  0
 11 13  1  0  0  0  0
 12 11  1  0  0  0  0
 14 11  1  0  0  0  0
M  END
$$$$
Title Card Required
 OpenBabel06272217483D

 14 13  0  0  0  0  0  0  0  0999 V2000
   -1.7982   -0.3142    0.0173 C   0  0  0  0  0  0  0  0  0  0  0  0
   -1.1402    0.2493   -0.7662 H   0  0  0  0  0  0  0  0  0  0  0  0
   -0.9907   -0.9487    0.4535 H   0  0  0  0  0  0  0  0  0  0  0  0
   -2.7621   -0.9797   -0.9927 C   0  0  0  0  0  0  0  0  0  0  0  0
   -2.3252   -1.9233   -1.5428 H   0  0  0  0  0  0  0  0  0  0  0  0
   -3.1016   -0.3998   -1.8828 H   0  0  0  0  0  0  0  0  0  0  0  0
    2.8607    0.2793    0.0835 Br  0  0  0  0  0 15  0  0  0  0  0  0
   -2.8036    0.7825    0.6102 C   0  0  0  0  0  0  0  0  0  0  0  0
   -2.3058    1.6106    0.0362 H   0  0  0  0  0  0  0  0  0  0  0  0
   -2.7717    1.2130    1.5934 H   0  0  0  0  0  0  0  0  0  0  0  0
   -4.2474    0.1144    0.2083 C   0  0  0  0  0  0  0  0  0  0  0  0
   -5.0111    0.6441   -0.3667 H   0  0  0  0  0  0  0  0  0  0  0  0
   -4.6176   -0.0904    1.2081 H   0  0  0  0  0  0  0  0  0  0  0  0
   -4.0006   -1.1028   -0.2143 O   0  0  0  0  0  0  0  0  0  0  0  0
  1  3  1  0  0  0  0
  1  8  1  0  0  0  0
  2  1  1  0  0  0  0
  4 14  1  0  0  0  0
  4  1  1  0  0  0  0
  5  4  1  0  0  0  0
  6  4  1  0  0  0  0
  8 10  1  0  0  0  0
  9  8  1  0  0  0  0
 11  8  1  0  0  0  0
 11 13  1  0  0  0  0
 12 11  1  0  0  0  0
 14 11  1  0  0  0  0
M  END
$$$$
Title Card Required
 OpenBabel06272217483D

 14 13  0  0  0  0  0  0  0  0999 V2000
   -1.7816   -0.3261    0.0049 C   0  0  0  0  0  0  0  0  0  0  0  0
   -1.1411    0.1717   -0.7389 H   0  0  0  0  0  0  0  0  0  0  0  0
   -1.0553   -1.0044    0.4149 H   0  0  0  0  0  0  0  0  0  0  0  0
   -2.7780   -0.9818   -0.9878 C   0  0  0  0  0  0  0  0  0  0  0  0
   -2.3675   -1.9187   -1.4521 H   0  0  0  0  0  0  0  0  0  0  0  0
   -3.1213   -0.3783   -1.9072 H   0  0  0  0  0  0  0  0  0  0  0  0
    2.8601    0.2801    0.0834 Br  0  0  0  0  0 15  0  0  0  0  0  0
   -2.8118    0.7948    0.6194 C   0  0  0  0  0  0  0  0  0  0  0  0
   -2.3497    1.6462    0.0487 H   0  0  0  0  0  0  0  0  0  0  0  0
   -2.7967    1.1931    1.6567 H   0  0  0  0  0  0  0  0  0  0  0  0
   -4.2314    0.0919    0.2060 C   0  0  0  0  0  0  0  0  0  0  0  0
   -5.0079    0.6383   -0.4258 H   0  0  0  0  0  0  0  0  0  0  0  0
   -4.6120   -0.0689    1.1735 H   0  0  0  0  0  0  0  0  0  0  0  0
   -3.9921   -1.0837   -0.2159 O   0  0  0  0  0  0  0  0  0  0  0  0
  1  3  1  0  0  0  0
  1  8  1  0  0  0  0
  2  1  1  0  0  0  0
  4 14  1  0  0  0  0
  4  1  1  0  0  0  0
  5  4  1  0  0  0  0
  6  4  1  0  0  0  0
  8 10  1  0  0  0  0
  9  8  1  0  0  0  0
 11  8  1  0  0  0  0
 11 13  1  0  0  0  0
 12 11  1  0  0  0  0
 14 11  1  0  0  0  0
M  END
$$$$
Title Card Required
 OpenBabel06272217483D

 14 13  0  0  0  0  0  0  0  0999 V2000
   -1.7666   -0.3363   -0.0105 C   0  0  0  0  0  0  0  0  0  0  0  0
   -1.1352    0.1012   -0.7042 H   0  0  0  0  0  0  0  0  0  0  0  0
   -1.1241   -1.0689    0.3945 H   0  0  0  0  0  0  0  0  0  0  0  0
   -2.7949   -0.9844   -0.9836 C   0  0  0  0  0  0  0  0  0  0  0  0
   -2.4207   -1.9130   -1.3486 H   0  0  0  0  0  0  0  0  0  0  0  0
   -3.1271   -0.3568   -1.9181 H   0  0  0  0  0  0  0  0  0  0  0  0
    2.8595    0.2809    0.0834 Br  0  0  0  0  0 15  0  0  0  0  0  0
   -2.8185    0.8068    0.6267 C   0  0  0  0  0  0  0  0  0  0  0  0
   -2.4139    1.6810    0.0624 H   0  0  0  0  0  0  0  0  0  0  0  0
   -2.8198    1.1597    1.7195 H   0  0  0  0  0  0  0  0  0  0  0  0
   -4.2155    0.0757    0.2065 C   0  0  0  0  0  0  0  0  0  0  0  0
   -4.9911    0.6360   -0.4811 H   0  0  0  0  0  0  0  0  0  0  0  0
   -4.6280   -0.0412    1.1604 H   0  0  0  0  0  0  0  0  0  0  0  0
   -3.9814   -1.0697   -0.2205 O   0  0  0  0  0  0  0  0  0  0  0  0
  1  3  1  0  0  0  0
  1  8  1  0  0  0  0
  2  1  1  0  0  0  0
  4 14  1  0  0  0  0
  4  1  1  0  0  0  0
  5  4  1  0  0  0  0
  6  4  1  0  0  0  0
  8 10  1  0  0  0  0
  9  8  1  0  0  0  0
 11  8  1  0  0  0  0
 11 13  1  0  0  0  0
 12 11  1  0  0  0  0
 14 11  1  0  0  0  0
M  END
$$$$
Title Card Required
 OpenBabel06272217483D

 14 13  0  0  0  0  0  0  0  0999 V2000
   -1.7558   -0.3454   -0.0277 C   0  0  0  0  0  0  0  0  0  0  0  0
   -1.1015    0.0544   -0.6827 H   0  0  0  0  0  0  0  0  0  0  0  0
   -1.1917   -1.1492    0.3993 H   0  0  0  0  0  0  0  0  0  0  0  0
   -2.8130   -0.9854   -0.9797 C   0  0  0  0  0  0  0  0  0  0  0  0
   -2.4780   -1.9263   -1.2442 H   0  0  0  0  0  0  0  0  0  0  0  0
   -3.1161   -0.3421   -1.9111 H   0  0  0  0  0  0  0  0  0  0  0  0
    2.8588    0.2817    0.0834 Br  0  0  0  0  0 15  0  0  0  0  0  0
   -2.8236    0.8181    0.6333 C   0  0  0  0  0  0  0  0  0  0  0  0
   -2.4962    1.7152    0.0779 H   0  0  0  0  0  0  0  0  0  0  0  0
   -2.8399    1.1094    1.7669 H   0  0  0  0  0  0  0  0  0  0  0  0
   -4.2004    0.0685    0.2097 C   0  0  0  0  0  0  0  0  0  0  0  0
   -4.9528    0.6338   -0.5254 H   0  0  0  0  0  0  0  0  0  0  0  0
   -4.6694   -0.0091    1.1721 H   0  0  0  0  0  0  0  0  0  0  0  0
   -3.9683   -1.0623   -0.2283 O   0  0  0  0  0  0  0  0  0  0  0  0
  1  3  1  0  0  0  0
  1  8  1  0  0  0  0
  2  1  1  0  0  0  0
  4 14  1  0  0  0  0
  4  1  1  0  0  0  0
  5  4  1  0  0  0  0
  6  4  1  0  0  0  0
  8 10  1  0  0  0  0
  9  8  1  0  0  0  0
 11  8  1  0  0  0  0
 11 13  1  0  0  0  0
 12 11  1  0  0  0  0
 14 11  1  0  0  0  0
M  END
$$$$
Title Card Required
 OpenBabel06272217483D

 14 13  0  0  0  0  0  0  0  0999 V2000
   -1.7509   -0.3535   -0.0440 C   0  0  0  0  0  0  0  0  0  0  0  0
   -1.0309    0.0411   -0.6862 H   0  0  0  0  0  0  0  0  0  0  0  0
   -1.2568   -1.2319    0.4265 H   0  0  0  0  0  0  0  0  0  0  0  0
   -2.8306   -0.9835   -0.9765 C   0  0  0  0  0  0  0  0  0  0  0  0
   -2.5281   -1.9712   -1.1569 H   0  0  0  0  0  0  0  0  0  0  0  0
   -3.0901   -0.3388   -1.8891 H   0  0  0  0  0  0  0  0  0  0  0  0
    2.8581    0.2825    0.0833 Br  0  0  0  0  0 15  0  0  0  0  0  0
   -2.8269    0.8271    0.6394 C   0  0  0  0  0  0  0  0  0  0  0  0
   -2.5854    1.7477    0.0937 H   0  0  0  0  0  0  0  0  0  0  0  0
   -2.8536    1.0473    1.7862 H   0  0  0  0  0  0  0  0  0  0  0  0
   -4.1884    0.0722    0.2163 C   0  0  0  0  0  0  0  0  0  0  0  0
   -4.8952    0.6316   -0.5516 H   0  0  0  0  0  0  0  0  0  0  0  0
   -4.7272    0.0234    1.1942 H   0  0  0  0  0  0  0  0  0  0  0  0
   -3.9543   -1.0625   -0.2381 O   0  0  0  0  0  0  0  0  0  0  0  0
  1  3  1  0  0  0  0
  1  8  1  0  0  0  0
  2  1  1  0  0  0  0
  4 14  1  0  0  0  0
  4  1  1  0  0  0  0
  5  4  1  0  0  0  0
  6  4  1  0  0  0  0
  8 10  1  0  0  0  0
  9  8  1  0  0  0  0
 11  8  1  0  0  0  0
 11 13  1  0  0  0  0
 12 11  1  0  0  0  0
 14 11  1  0  0  0  0
M  END
$$$$
Title Card Required
 OpenBabel06272217483D

 14 13  0  0  0  0  0  0  0  0999 V2000
   -1.7500   -0.3609   -0.0590 C   0  0  0  0  0  0  0  0  0  0  0  0
   -0.9411    0.0474   -0.6995 H   0  0  0  0  0  0  0  0  0  0  0  0
   -1.3237   -1.2986    0.4649 H   0  0  0  0  0  0  0  0  0  0  0  0
   -2.8456   -0.9801   -0.9744 C   0  0  0  0  0  0  0  0  0  0  0  0
   -2.5697   -2.0350   -1.0907 H   0  0  0  0  0  0  0  0  0  0  0  0
   -3.0548   -0.3454   -1.8619 H   0  0  0  0  0  0  0  0  0  0  0  0
    2.8574    0.2833    0.0833 Br  0  0  0  0  0 15  0  0  0  0  0  0
   -2.8289    0.8332    0.6452 C   0  0  0  0  0  0  0  0  0  0  0  0
   -2.6733    1.7789    0.1094 H   0  0  0  0  0  0  0  0  0  0  0  0
   -2.8597    0.9805    1.7794 H   0  0  0  0  0  0  0  0  0  0  0  0
   -4.1800    0.0849    0.2264 C   0  0  0  0  0  0  0  0  0  0  0  0
   -4.8251    0.6310   -0.5610 H   0  0  0  0  0  0  0  0  0  0  0  0
   -4.7877    0.0534    1.2080 H   0  0  0  0  0  0  0  0  0  0  0  0
   -3.9409   -1.0686   -0.2484 O   0  0  0  0  0  0  0  0  0  0  0  0
  1  3  1  0  0  0  0
  1  8  1  0  0  0  0
  2  1  1  0  0  0  0
  4 14  1  0  0  0  0
  4  1  1  0  0  0  0
  5  4  1  0  0  0  0
  6  4  1  0  0  0  0
  8 10  1  0  0  0  0
  9  8  1  0  0  0  0
 11  8  1  0  0  0  0
 11 13  1  0  0  0  0
 12 11  1  0  0  0  0
 14 11  1  0  0  0  0
M  END
$$$$
Title Card Required
 OpenBabel06272217483D

 14 13  0  0  0  0  0  0  0  0999 V2000
   -1.7508   -0.3679   -0.0743 C   0  0  0  0  0  0  0  0  0  0  0  0
   -0.8515    0.0571   -0.7040 H   0  0  0  0  0  0  0  0  0  0  0  0
   -1.3984   -1.3397    0.5076 H   0  0  0  0  0  0  0  0  0  0  0  0
   -2.8568   -0.9775   -0.9734 C   0  0  0  0  0  0  0  0  0  0  0  0
   -2.6074   -2.0985   -1.0425 H   0  0  0  0  0  0  0  0  0  0  0  0
   -3.0139   -0.3569   -1.8398 H   0  0  0  0  0  0  0  0  0  0  0  0
    2.8567    0.2840    0.0832 Br  0  0  0  0  0 15  0  0  0  0  0  0
   -2.8300    0.8362    0.6506 C   0  0  0  0  0  0  0  0  0  0  0  0
   -2.7608    1.8094    0.1272 H   0  0  0  0  0  0  0  0  0  0  0  0
   -2.8575    0.9106    1.7540 H   0  0  0  0  0  0  0  0  0  0  0  0
   -4.1746    0.1048    0.2403 C   0  0  0  0  0  0  0  0  0  0  0  0
   -4.7453    0.6354   -0.5584 H   0  0  0  0  0  0  0  0  0  0  0  0
   -4.8448    0.0808    1.2039 H   0  0  0  0  0  0  0  0  0  0  0  0
   -3.9289   -1.0791   -0.2581 O   0  0  0  0  0  0  0  0  0  0  0  0
  1  3  1  0  0  0  0
  1  8  1  0  0  0  0
  2  1  1  0  0  0  0
  4 14  1  0  0  0  0
  4  1  1  0  0  0  0
  5  4  1  0  0  0  0
  6  4  1  0  0  0  0
  8 10  1  0  0  0  0
  9  8  1  0  0  0  0
 11  8  1  0  0  0  0
 11 13  1  0  0  0  0
 12 11  1  0  0  0  0
 14 11  1  0  0  0  0
M  END
$$$$
Title Card Required
 OpenBabel06272217483D

 14 13  0  0  0  0  0  0  0  0999 V2000
   -1.7519   -0.3746   -0.0905 C   0  0  0  0  0  0  0  0  0  0  0  0
   -0.7776    0.0591   -0.6865 H   0  0  0  0  0  0  0  0  0  0  0  0
   -1.4837   -1.3456    0.5506 H   0  0  0  0  0  0  0  0  0  0  0  0
   -2.8625   -0.9781   -0.9735 C   0  0  0  0  0  0  0  0  0  0  0  0
   -2.6426   -2.1452   -1.0146 H   0  0  0  0  0  0  0  0  0  0  0  0
   -2.9703   -0.3676   -1.8357 H   0  0  0  0  0  0  0  0  0  0  0  0
    2.8560    0.2848    0.0831 Br  0  0  0  0  0 15  0  0  0  0  0  0
   -2.8304    0.8361    0.6546 C   0  0  0  0  0  0  0  0  0  0  0  0
   -2.8479    1.8370    0.1514 H   0  0  0  0  0  0  0  0  0  0  0  0
   -2.8448    0.8387    1.7219 H   0  0  0  0  0  0  0  0  0  0  0  0
   -4.1715    0.1311    0.2587 C   0  0  0  0  0  0  0  0  0  0  0  0
   -4.6600    0.6509   -0.5503 H   0  0  0  0  0  0  0  0  0  0  0  0
   -4.8944    0.1058    1.1754 H   0  0  0  0  0  0  0  0  0  0  0  0
   -3.9195   -1.0931   -0.2664 O   0  0  0  0  0  0  0  0  0  0  0  0
  1  3  1  0  0  0  0
  1  8  1  0  0  0  0
  2  1  1  0  0  0  0
  4 14  1  0  0  0  0
  4  1  1  0  0  0  0
  5  4  1  0  0  0  0
  6  4  1  0  0  0  0
  8 10  1  0  0  0  0
  9  8  1  0  0  0  0
 11  8  1  0  0  0  0
 11 13  1  0  0  0  0
 12 11  1  0  0  0  0
 14 11  1  0  0  0  0
M  END
$$$$
Title Card Required
 OpenBabel06272217483D

 14 13  0  0  0  0  0  0  0  0999 V2000
   -1.7526   -0.3805   -0.1071 C   0  0  0  0  0  0  0  0  0  0  0  0
   -0.7356    0.0453   -0.6403 H   0  0  0  0  0  0  0  0  0  0  0  0
   -1.5743   -1.3083    0.5892 H   0  0  0  0  0  0  0  0  0  0  0  0
   -2.8605   -0.9838   -0.9753 C   0  0  0  0  0  0  0  0  0  0  0  0
   -2.6712   -2.1603   -1.0135 H   0  0  0  0  0  0  0  0  0  0  0  0
   -2.9291   -0.3734   -1.8601 H   0  0  0  0  0  0  0  0  0  0  0  0
    2.8551    0.2857    0.0831 Br  0  0  0  0  0 15  0  0  0  0  0  0
   -2.8302    0.8326    0.6556 C   0  0  0  0  0  0  0  0  0  0  0  0
   -2.9275    1.8561    0.1860 H   0  0  0  0  0  0  0  0  0  0  0  0
   -2.8185    0.7702    1.7028 H   0  0  0  0  0  0  0  0  0  0  0  0
   -4.1700    0.1613    0.2810 C   0  0  0  0  0  0  0  0  0  0  0  0
   -4.5805    0.6850   -0.5475 H   0  0  0  0  0  0  0  0  0  0  0  0
   -4.9312    0.1270    1.1226 H   0  0  0  0  0  0  0  0  0  0  0  0
   -3.9146   -1.1089   -0.2714 O   0  0  0  0  0  0  0  0  0  0  0  0
  1  3  1  0  0  0  0
  1  8  1  0  0  0  0
  2  1  1  0  0  0  0
  4 14  1  0  0  0  0
  4  1  1  0  0  0  0
  5  4  1  0  0  0  0
  6  4  1  0  0  0  0
  8 10  1  0  0  0  0
  9  8  1  0  0  0  0
 11  8  1  0  0  0  0
 11 13  1  0  0  0  0
 12 11  1  0  0  0  0
 14 11  1  0  0  0  0
M  END
$$$$
Title Card Required
 OpenBabel06272217483D

 14 13  0  0  0  0  0  0  0  0999 V2000
   -1.7530   -0.3846   -0.1219 C   0  0  0  0  0  0  0  0  0  0  0  0
   -0.7318    0.0154   -0.5726 H   0  0  0  0  0  0  0  0  0  0  0  0
   -1.6568   -1.2364    0.6206 H   0  0  0  0  0  0  0  0  0  0  0  0
   -2.8509   -0.9940   -0.9793 C   0  0  0  0  0  0  0  0  0  0  0  0
   -2.6867   -2.1424   -1.0399 H   0  0  0  0  0  0  0  0  0  0  0  0
   -2.8963   -0.3777   -1.9047 H   0  0  0  0  0  0  0  0  0  0  0  0
    2.8543    0.2865    0.0830 Br  0  0  0  0  0 15  0  0  0  0  0  0
   -2.8298    0.8264    0.6529 C   0  0  0  0  0  0  0  0  0  0  0  0
   -2.9877    1.8624    0.2306 H   0  0  0  0  0  0  0  0  0  0  0  0
   -2.7795    0.7125    1.7093 H   0  0  0  0  0  0  0  0  0  0  0  0
   -4.1693    0.1904    0.3035 C   0  0  0  0  0  0  0  0  0  0  0  0
   -4.5188    0.7360   -0.5568 H   0  0  0  0  0  0  0  0  0  0  0  0
   -4.9555    0.1436    1.0599 H   0  0  0  0  0  0  0  0  0  0  0  0
   -3.9154   -1.1239   -0.2722 O   0  0  0  0  0  0  0  0  0  0  0  0
  1  3  1  0  0  0  0
  1  8  1  0  0  0  0
  2  1  1  0  0  0  0
  4 14  1  0  0  0  0
  4  1  1  0  0  0  0
  5  4  1  0  0  0  0
  6  4  1  0  0  0  0
  8 10  1  0  0  0  0
  9  8  1  0  0  0  0
 11  8  1  0  0  0  0
 11 13  1  0  0  0  0
 12 11  1  0  0  0  0
 14 11  1  0  0  0  0
M  END
$$$$
Title Card Required
 OpenBabel06272217483D

 14 13  0  0  0  0  0  0  0  0999 V2000
   -1.7541   -0.3865   -0.1344 C   0  0  0  0  0  0  0  0  0  0  0  0
   -0.7549   -0.0245   -0.4954 H   0  0  0  0  0  0  0  0  0  0  0  0
   -1.7254   -1.1481    0.6497 H   0  0  0  0  0  0  0  0  0  0  0  0
   -2.8360   -1.0065   -0.9860 C   0  0  0  0  0  0  0  0  0  0  0  0
   -2.6872   -2.1044   -1.0875 H   0  0  0  0  0  0  0  0  0  0  0  0
   -2.8733   -0.3880   -1.9526 H   0  0  0  0  0  0  0  0  0  0  0  0
    2.8535    0.2872    0.0829 Br  0  0  0  0  0 15  0  0  0  0  0  0
   -2.8291    0.8182    0.6482 C   0  0  0  0  0  0  0  0  0  0  0  0
   -3.0253    1.8586    0.2820 H   0  0  0  0  0  0  0  0  0  0  0  0
   -2.7304    0.6673    1.7310 H   0  0  0  0  0  0  0  0  0  0  0  0
   -4.1685    0.2167    0.3232 C   0  0  0  0  0  0  0  0  0  0  0  0
   -4.4734    0.7937   -0.5722 H   0  0  0  0  0  0  0  0  0  0  0  0
   -4.9774    0.1565    1.0041 H   0  0  0  0  0  0  0  0  0  0  0  0
   -3.9208   -1.1366   -0.2694 O   0  0  0  0  0  0  0  0  0  0  0  0
  1  8  1  0  0  0  0
  1  3  1  0  0  0  0
  2  1  1  0  0  0  0
  4 14  1  0  0  0  0
  4  1  1  0  0  0  0
  5  4  1  0  0  0  0
  6  4  1  0  0  0  0
  8 10  1  0  0  0  0
  9  8  1  0  0  0  0
 11  8  1  0  0  0  0
 11 13  1  0  0  0  0
 12 11  1  0  0  0  0
 14 11  1  0  0  0  0
M  END
$$$$
Title Card Required
 OpenBabel06272217483D

 14 13  0  0  0  0  0  0  0  0999 V2000
   -1.7573   -0.3862   -0.1448 C   0  0  0  0  0  0  0  0  0  0  0  0
   -0.7873   -0.0679   -0.4167 H   0  0  0  0  0  0  0  0  0  0  0  0
   -1.7815   -1.0558    0.6853 H   0  0  0  0  0  0  0  0  0  0  0  0
   -2.8174   -1.0198   -0.9959 C   0  0  0  0  0  0  0  0  0  0  0  0
   -2.6718   -2.0619   -1.1533 H   0  0  0  0  0  0  0  0  0  0  0  0
   -2.8586   -0.4091   -1.9934 H   0  0  0  0  0  0  0  0  0  0  0  0
    2.8527    0.2880    0.0828 Br  0  0  0  0  0 15  0  0  0  0  0  0
   -2.8279    0.8082    0.6435 C   0  0  0  0  0  0  0  0  0  0  0  0
   -3.0417    1.8496    0.3396 H   0  0  0  0  0  0  0  0  0  0  0  0
   -2.6723    0.6330    1.7528 H   0  0  0  0  0  0  0  0  0  0  0  0
   -4.1669    0.2410    0.3385 C   0  0  0  0  0  0  0  0  0  0  0  0
   -4.4383    0.8506   -0.5850 H   0  0  0  0  0  0  0  0  0  0  0  0
   -5.0077    0.1673    0.9642 H   0  0  0  0  0  0  0  0  0  0  0  0
   -3.9296   -1.1472   -0.2639 O   0  0  0  0  0  0  0  0  0  0  0  0
  1  8  1  0  0  0  0
  1  3  1  0  0  0  0
  2  1  1  0  0  0  0
  4 14  1  0  0  0  0
  4  1  1  0  0  0  0
  5  4  1  0  0  0  0
  6  4  1  0  0  0  0
  8 10  1  0  0  0  0
  9  8  1  0  0  0  0
 11  8  1  0  0  0  0
 11 13  1  0  0  0  0
 12 11  1  0  0  0  0
 14 11  1  0  0  0  0
M  END
$$$$
Title Card Required
 OpenBabel06272217483D

 14 13  0  0  0  0  0  0  0  0999 V2000
   -1.7651   -0.3836   -0.1531 C   0  0  0  0  0  0  0  0  0  0  0  0
   -0.8040   -0.1063   -0.3442 H   0  0  0  0  0  0  0  0  0  0  0  0
   -1.8267   -0.9675    0.7353 H   0  0  0  0  0  0  0  0  0  0  0  0
   -2.7960   -1.0327   -1.0092 C   0  0  0  0  0  0  0  0  0  0  0  0
   -2.6381   -2.0332   -1.2375 H   0  0  0  0  0  0  0  0  0  0  0  0
   -2.8520   -0.4437   -2.0211 H   0  0  0  0  0  0  0  0  0  0  0  0
    2.8518    0.2887    0.0827 Br  0  0  0  0  0 15  0  0  0  0  0  0
   -2.8254    0.7957    0.6404 C   0  0  0  0  0  0  0  0  0  0  0  0
   -3.0359    1.8410    0.4028 H   0  0  0  0  0  0  0  0  0  0  0  0
   -2.6062    0.6099    1.7621 H   0  0  0  0  0  0  0  0  0  0  0  0
   -4.1646    0.2639    0.3485 C   0  0  0  0  0  0  0  0  0  0  0  0
   -4.4105    0.9006   -0.5878 H   0  0  0  0  0  0  0  0  0  0  0  0
   -5.0508    0.1777    0.9430 H   0  0  0  0  0  0  0  0  0  0  0  0
   -3.9413   -1.1556   -0.2561 O   0  0  0  0  0  0  0  0  0  0  0  0
  1  8  1  0  0  0  0
  1  3  1  0  0  0  0
  2  1  1  0  0  0  0
  4 14  1  0  0  0  0
  4  1  1  0  0  0  0
  5  4  1  0  0  0  0
  6  4  1  0  0  0  0
  8 10  1  0  0  0  0
  9  8  1  0  0  0  0
 11  8  1  0  0  0  0
 11 13  1  0  0  0  0
 12 11  1  0  0  0  0
 14 11  1  0  0  0  0
M  END
$$$$
Title Card Required
 OpenBabel06272217483D

 14 13  0  0  0  0  0  0  0  0999 V2000
   -1.7792   -0.3789   -0.1581 C   0  0  0  0  0  0  0  0  0  0  0  0
   -0.7816   -0.1312   -0.2867 H   0  0  0  0  0  0  0  0  0  0  0  0
   -1.8603   -0.8919    0.7969 H   0  0  0  0  0  0  0  0  0  0  0  0
   -2.7737   -1.0438   -1.0252 C   0  0  0  0  0  0  0  0  0  0  0  0
   -2.5861   -2.0338   -1.3355 H   0  0  0  0  0  0  0  0  0  0  0  0
   -2.8537   -0.4891   -2.0313 H   0  0  0  0  0  0  0  0  0  0  0  0
    2.8509    0.2895    0.0826 Br  0  0  0  0  0 15  0  0  0  0  0  0
   -2.8210    0.7810    0.6401 C   0  0  0  0  0  0  0  0  0  0  0  0
   -3.0066    1.8387    0.4674 H   0  0  0  0  0  0  0  0  0  0  0  0
   -2.5377    0.5992    1.7499 H   0  0  0  0  0  0  0  0  0  0  0  0
   -4.1624    0.2844    0.3524 C   0  0  0  0  0  0  0  0  0  0  0  0
   -4.3906    0.9370   -0.5759 H   0  0  0  0  0  0  0  0  0  0  0  0
   -5.0978    0.1896    0.9377 H   0  0  0  0  0  0  0  0  0  0  0  0
   -3.9547   -1.1615   -0.2469 O   0  0  0  0  0  0  0  0  0  0  0  0
  1  8  1  0  0  0  0
  1  3  1  0  0  0  0
  2  1  1  0  0  0  0
  4 14  1  0  0  0  0
  4  1  1  0  0  0  0
  5  4  1  0  0  0  0
  6  4  1  0  0  0  0
  8 10  1  0  0  0  0
  9  8  1  0  0  0  0
 11  8  1  0  0  0  0
 11 13  1  0  0  0  0
 12 11  1  0  0  0  0
 14 11  1  0  0  0  0
M  END
$$$$
Title Card Required
 OpenBabel06272217483D

 14 13  0  0  0  0  0  0  0  0999 V2000
   -1.7982   -0.3723   -0.1587 C   0  0  0  0  0  0  0  0  0  0  0  0
   -0.7287   -0.1438   -0.2451 H   0  0  0  0  0  0  0  0  0  0  0  0
   -1.8819   -0.8334    0.8561 H   0  0  0  0  0  0  0  0  0  0  0  0
   -2.7526   -1.0536   -1.0427 C   0  0  0  0  0  0  0  0  0  0  0  0
   -2.5216   -2.0578   -1.4357 H   0  0  0  0  0  0  0  0  0  0  0  0
   -2.8635   -0.5373   -2.0262 H   0  0  0  0  0  0  0  0  0  0  0  0
    2.8499    0.2903    0.0825 Br  0  0  0  0  0 15  0  0  0  0  0  0
   -2.8141    0.7650    0.6432 C   0  0  0  0  0  0  0  0  0  0  0  0
   -2.9554    1.8450    0.5281 H   0  0  0  0  0  0  0  0  0  0  0  0
   -2.4733    0.5999    1.7162 H   0  0  0  0  0  0  0  0  0  0  0  0
   -4.1617    0.3012    0.3504 C   0  0  0  0  0  0  0  0  0  0  0  0
   -4.3795    0.9575   -0.5503 H   0  0  0  0  0  0  0  0  0  0  0  0
   -5.1330    0.2047    0.9402 H   0  0  0  0  0  0  0  0  0  0  0  0
   -3.9685   -1.1647   -0.2374 O   0  0  0  0  0  0  0  0  0  0  0  0
  1  8  1  0  0  0  0
  1  3  1  0  0  0  0
  2  1  1  0  0  0  0
  4 14  1  0  0  0  0
  4  1  1  0  0  0  0
  5  4  1  0  0  0  0
  6  4  1  0  0  0  0
  8 10  1  0  0  0  0
  9  8  1  0  0  0  0
 11  8  1  0  0  0  0
 11 13  1  0  0  0  0
 12 11  1  0  0  0  0
 14 11  1  0  0  0  0
M  END
$$$$
Title Card Required
 OpenBabel06272217483D

 14 13  0  0  0  0  0  0  0  0999 V2000
   -1.8197   -0.3629   -0.1541 C   0  0  0  0  0  0  0  0  0  0  0  0
   -0.6741   -0.1508   -0.2152 H   0  0  0  0  0  0  0  0  0  0  0  0
   -1.8914   -0.7928    0.8987 H   0  0  0  0  0  0  0  0  0  0  0  0
   -2.7325   -1.0648   -1.0619 C   0  0  0  0  0  0  0  0  0  0  0  0
   -2.4493   -2.0870   -1.5276 H   0  0  0  0  0  0  0  0  0  0  0  0
   -2.8827   -0.5798   -2.0142 H   0  0  0  0  0  0  0  0  0  0  0  0
    2.8489    0.2911    0.0824 Br  0  0  0  0  0 15  0  0  0  0  0  0
   -2.8040    0.7483    0.6495 C   0  0  0  0  0  0  0  0  0  0  0  0
   -2.8815    1.8568    0.5833 H   0  0  0  0  0  0  0  0  0  0  0  0
   -2.4144    0.6092    1.6675 H   0  0  0  0  0  0  0  0  0  0  0  0
   -4.1635    0.3142    0.3435 C   0  0  0  0  0  0  0  0  0  0  0  0
   -4.3782    0.9653   -0.5163 H   0  0  0  0  0  0  0  0  0  0  0  0
   -5.1444    0.2252    0.9445 H   0  0  0  0  0  0  0  0  0  0  0  0
   -3.9825   -1.1652   -0.2279 O   0  0  0  0  0  0  0  0  0  0  0  0
  1  8  1  0  0  0  0
  1  3  1  0  0  0  0
  2  1  1  0  0  0  0
  4 14  1  0  0  0  0
  4  1  1  0  0  0  0
  5  4  1  0  0  0  0
  6  4  1  0  0  0  0
  8 10  1  0  0  0  0
  9  8  1  0  0  0  0
 11  8  1  0  0  0  0
 11 13  1  0  0  0  0
 12 11  1  0  0  0  0
 14 11  1  0  0  0  0
M  END
$$$$
Title Card Required
 OpenBabel06272217483D

 14 13  0  0  0  0  0  0  0  0999 V2000
   -1.8416   -0.3497   -0.1423 C   0  0  0  0  0  0  0  0  0  0  0  0
   -0.6487   -0.1567   -0.1959 H   0  0  0  0  0  0  0  0  0  0  0  0
   -1.8867   -0.7777    0.9096 H   0  0  0  0  0  0  0  0  0  0  0  0
   -2.7129   -1.0803   -1.0827 C   0  0  0  0  0  0  0  0  0  0  0  0
   -2.3739   -2.1032   -1.5970 H   0  0  0  0  0  0  0  0  0  0  0  0
   -2.9150   -0.6044   -2.0091 H   0  0  0  0  0  0  0  0  0  0  0  0
    2.8477    0.2920    0.0822 Br  0  0  0  0  0 15  0  0  0  0  0  0
   -2.7898    0.7316    0.6584 C   0  0  0  0  0  0  0  0  0  0  0  0
   -2.7823    1.8657    0.6288 H   0  0  0  0  0  0  0  0  0  0  0  0
   -2.3598    0.6231    1.6205 H   0  0  0  0  0  0  0  0  0  0  0  0
   -4.1681    0.3223    0.3322 C   0  0  0  0  0  0  0  0  0  0  0  0
   -4.3903    0.9677   -0.4857 H   0  0  0  0  0  0  0  0  0  0  0  0
   -5.1219    0.2527    0.9485 H   0  0  0  0  0  0  0  0  0  0  0  0
   -3.9969   -1.1627   -0.2185 O   0  0  0  0  0  0  0  0  0  0  0  0
  1  8  1  0  0  0  0
  1  3  1  0  0  0  0
  2  1  1  0  0  0  0
  4 14  1  0  0  0  0
  4  1  1  0  0  0  0
  5  4  1  0  0  0  0
  6  4  1  0  0  0  0
  8 10  1  0  0  0  0
  9  8  1  0  0  0  0
 11  8  1  0  0  0  0
 11 13  1  0  0  0  0
 12 11  1  0  0  0  0
 14 11  1  0  0  0  0
M  END
$$$$
Title Card Required
 OpenBabel06272217483D

 14 13  0  0  0  0  0  0  0  0999 V2000
   -1.8604   -0.3334   -0.1239 C   0  0  0  0  0  0  0  0  0  0  0  0
   -0.6763   -0.1610   -0.1907 H   0  0  0  0  0  0  0  0  0  0  0  0
   -1.8671   -0.8008    0.8803 H   0  0  0  0  0  0  0  0  0  0  0  0
   -2.6957   -1.1004   -1.1026 C   0  0  0  0  0  0  0  0  0  0  0  0
   -2.3083   -2.0928   -1.6239 H   0  0  0  0  0  0  0  0  0  0  0  0
   -2.9605   -0.5990   -2.0218 H   0  0  0  0  0  0  0  0  0  0  0  0
    2.8464    0.2929    0.0821 Br  0  0  0  0  0 15  0  0  0  0  0  0
   -2.7724    0.7181    0.6673 C   0  0  0  0  0  0  0  0  0  0  0  0
   -2.6689    1.8603    0.6530 H   0  0  0  0  0  0  0  0  0  0  0  0
   -2.3116    0.6335    1.6071 H   0  0  0  0  0  0  0  0  0  0  0  0
   -4.1742    0.3231    0.3183 C   0  0  0  0  0  0  0  0  0  0  0  0
   -4.4191    0.9766   -0.4799 H   0  0  0  0  0  0  0  0  0  0  0  0
   -5.0673    0.2838    0.9559 H   0  0  0  0  0  0  0  0  0  0  0  0
   -4.0103   -1.1570   -0.2104 O   0  0  0  0  0  0  0  0  0  0  0  0
  1  8  1  0  0  0  0
  1  3  1  0  0  0  0
  2  1  1  0  0  0  0
  4 14  1  0  0  0  0
  4  1  1  0  0  0  0
  5  4  1  0  0  0  0
  6  4  1  0  0  0  0
  8 10  1  0  0  0  0
  9  8  1  0  0  0  0
 11  8  1  0  0  0  0
 11 13  1  0  0  0  0
 12 11  1  0  0  0  0
 14 11  1  0  0  0  0
M  END
$$$$
Title Card Required
 OpenBabel06272217483D

 14 13  0  0  0  0  0  0  0  0999 V2000
   -1.8737   -0.3172   -0.1036 C   0  0  0  0  0  0  0  0  0  0  0  0
   -0.7452   -0.1597   -0.1990 H   0  0  0  0  0  0  0  0  0  0  0  0
   -1.8393   -0.8608    0.8287 H   0  0  0  0  0  0  0  0  0  0  0  0
   -2.6829   -1.1201   -1.1191 C   0  0  0  0  0  0  0  0  0  0  0  0
   -2.2630   -2.0619   -1.6079 H   0  0  0  0  0  0  0  0  0  0  0  0
   -3.0076   -0.5736   -2.0398 H   0  0  0  0  0  0  0  0  0  0  0  0
    2.8451    0.2938    0.0820 Br  0  0  0  0  0 15  0  0  0  0  0  0
   -2.7548    0.7098    0.6741 C   0  0  0  0  0  0  0  0  0  0  0  0
   -2.5646    1.8380    0.6505 H   0  0  0  0  0  0  0  0  0  0  0  0
   -2.2765    0.6343    1.6354 H   0  0  0  0  0  0  0  0  0  0  0  0
   -4.1786    0.3174    0.3041 C   0  0  0  0  0  0  0  0  0  0  0  0
   -4.4579    0.9934   -0.5010 H   0  0  0  0  0  0  0  0  0  0  0  0
   -5.0063    0.3111    0.9751 H   0  0  0  0  0  0  0  0  0  0  0  0
   -4.0211   -1.1493   -0.2046 O   0  0  0  0  0  0  0  0  0  0  0  0
  1  8  1  0  0  0  0
  1  3  1  0  0  0  0
  2  1  1  0  0  0  0
  4 14  1  0  0  0  0
  4  1  1  0  0  0  0
  5  4  1  0  0  0  0
  6  4  1  0  0  0  0
  8 10  1  0  0  0  0
  9  8  1  0  0  0  0
 11  8  1  0  0  0  0
 11 13  1  0  0  0  0
 12 11  1  0  0  0  0
 14 11  1  0  0  0  0
M  END
$$$$
Title Card Required
 OpenBabel06272217483D

 14 13  0  0  0  0  0  0  0  0999 V2000
   -1.8836   -0.3025   -0.0840 C   0  0  0  0  0  0  0  0  0  0  0  0
   -0.8276   -0.1492   -0.2177 H   0  0  0  0  0  0  0  0  0  0  0  0
   -1.8084   -0.9485    0.7735 H   0  0  0  0  0  0  0  0  0  0  0  0
   -2.6745   -1.1361   -1.1327 C   0  0  0  0  0  0  0  0  0  0  0  0
   -2.2325   -2.0280   -1.5658 H   0  0  0  0  0  0  0  0  0  0  0  0
   -3.0479   -0.5453   -2.0479 H   0  0  0  0  0  0  0  0  0  0  0  0
    2.8439    0.2945    0.0818 Br  0  0  0  0  0 15  0  0  0  0  0  0
   -2.7370    0.7055    0.6797 C   0  0  0  0  0  0  0  0  0  0  0  0
   -2.4747    1.8036    0.6266 H   0  0  0  0  0  0  0  0  0  0  0  0
   -2.2596    0.6261    1.6847 H   0  0  0  0  0  0  0  0  0  0  0  0
   -4.1801    0.3079    0.2888 C   0  0  0  0  0  0  0  0  0  0  0  0
   -4.4978    1.0085   -0.5320 H   0  0  0  0  0  0  0  0  0  0  0  0
   -4.9561    0.3327    1.0110 H   0  0  0  0  0  0  0  0  0  0  0  0
   -4.0298   -1.1405   -0.2007 O   0  0  0  0  0  0  0  0  0  0  0  0
  1  8  1  0  0  0  0
  1  3  1  0  0  0  0
  2  1  1  0  0  0  0
  4 14  1  0  0  0  0
  4  1  1  0  0  0  0
  5  4  1  0  0  0  0
  6  4  1  0  0  0  0
  8 10  1  0  0  0  0
  9  8  1  0  0  0  0
 11  8  1  0  0  0  0
 11 13  1  0  0  0  0
 12 11  1  0  0  0  0
 14 11  1  0  0  0  0
M  END
$$$$
Title Card Required
 OpenBabel06272217483D

 14 13  0  0  0  0  0  0  0  0999 V2000
   -1.8931   -0.2901   -0.0650 C   0  0  0  0  0  0  0  0  0  0  0  0
   -0.8969   -0.1244   -0.2480 H   0  0  0  0  0  0  0  0  0  0  0  0
   -1.7752   -1.0574    0.7181 H   0  0  0  0  0  0  0  0  0  0  0  0
   -2.6703   -1.1465   -1.1438 C   0  0  0  0  0  0  0  0  0  0  0  0
   -2.2070   -2.0088   -1.5106 H   0  0  0  0  0  0  0  0  0  0  0  0
   -3.0777   -0.5236   -2.0397 H   0  0  0  0  0  0  0  0  0  0  0  0
    2.8427    0.2953    0.0817 Br  0  0  0  0  0 15  0  0  0  0  0  0
   -2.7183    0.7037    0.6856 C   0  0  0  0  0  0  0  0  0  0  0  0
   -2.3956    1.7615    0.5845 H   0  0  0  0  0  0  0  0  0  0  0  0
   -2.2648    0.6106    1.7379 H   0  0  0  0  0  0  0  0  0  0  0  0
   -4.1788    0.2960    0.2714 C   0  0  0  0  0  0  0  0  0  0  0  0
   -4.5346    1.0133   -0.5604 H   0  0  0  0  0  0  0  0  0  0  0  0
   -4.9171    0.3490    1.0625 H   0  0  0  0  0  0  0  0  0  0  0  0
   -4.0372   -1.1305   -0.1981 O   0  0  0  0  0  0  0  0  0  0  0  0
  1  8  1  0  0  0  0
  1  3  1  0  0  0  0
  2  1  1  0  0  0  0
  4 14  1  0  0  0  0
  4  1  1  0  0  0  0
  5  4  1  0  0  0  0
  6  4  1  0  0  0  0
  8 10  1  0  0  0  0
  9  8  1  0  0  0  0
 11  8  1  0  0  0  0
 11 13  1  0  0  0  0
 12 11  1  0  0  0  0
 14 11  1  0  0  0  0
M  END
$$$$
Title Card Required
 OpenBabel06272217483D

 14 13  0  0  0  0  0  0  0  0999 V2000
   -1.9038   -0.2819   -0.0463 C   0  0  0  0  0  0  0  0  0  0  0  0
   -0.9278   -0.0802   -0.2928 H   0  0  0  0  0  0  0  0  0  0  0  0
   -1.7410   -1.1732    0.6584 H   0  0  0  0  0  0  0  0  0  0  0  0
   -2.6710   -1.1490   -1.1519 C   0  0  0  0  0  0  0  0  0  0  0  0
   -2.1784   -2.0204   -1.4516 H   0  0  0  0  0  0  0  0  0  0  0  0
   -3.0939   -0.5150   -2.0150 H   0  0  0  0  0  0  0  0  0  0  0  0
    2.8415    0.2960    0.0816 Br  0  0  0  0  0 15  0  0  0  0  0  0
   -2.6986    0.7033    0.6927 C   0  0  0  0  0  0  0  0  0  0  0  0
   -2.3264    1.7180    0.5268 H   0  0  0  0  0  0  0  0  0  0  0  0
   -2.2957    0.5901    1.7824 H   0  0  0  0  0  0  0  0  0  0  0  0
   -4.1753    0.2825    0.2520 C   0  0  0  0  0  0  0  0  0  0  0  0
   -4.5645    1.0022   -0.5781 H   0  0  0  0  0  0  0  0  0  0  0  0
   -4.8820    0.3595    1.1197 H   0  0  0  0  0  0  0  0  0  0  0  0
   -4.0435   -1.1192   -0.1968 O   0  0  0  0  0  0  0  0  0  0  0  0
  1  3  1  0  0  0  0
  1  8  1  0  0  0  0
  2  1  1  0  0  0  0
  4 14  1  0  0  0  0
  4  1  1  0  0  0  0
  5  4  1  0  0  0  0
  6  4  1  0  0  0  0
  8 10  1  0  0  0  0
  9  8  1  0  0  0  0
 11  8  1  0  0  0  0
 11 13  1  0  0  0  0
 12 11  1  0  0  0  0
 14 11  1  0  0  0  0
M  END
$$$$
Title Card Required
 OpenBabel06272217483D

 14 13  0  0  0  0  0  0  0  0999 V2000
   -1.9146   -0.2804   -0.0283 C   0  0  0  0  0  0  0  0  0  0  0  0
   -0.9201   -0.0191   -0.3495 H   0  0  0  0  0  0  0  0  0  0  0  0
   -1.7079   -1.2734    0.5921 H   0  0  0  0  0  0  0  0  0  0  0  0
   -2.6768   -1.1432   -1.1561 C   0  0  0  0  0  0  0  0  0  0  0  0
   -2.1483   -2.0611   -1.3929 H   0  0  0  0  0  0  0  0  0  0  0  0
   -3.0960   -0.5210   -1.9804 H   0  0  0  0  0  0  0  0  0  0  0  0
    2.8402    0.2968    0.0815 Br  0  0  0  0  0 15  0  0  0  0  0  0
   -2.6792    0.7033    0.7014 C   0  0  0  0  0  0  0  0  0  0  0  0
   -2.2679    1.6808    0.4588 H   0  0  0  0  0  0  0  0  0  0  0  0
   -2.3507    0.5689    1.8089 H   0  0  0  0  0  0  0  0  0  0  0  0
   -4.1704    0.2685    0.2325 C   0  0  0  0  0  0  0  0  0  0  0  0
   -4.5852    0.9746   -0.5816 H   0  0  0  0  0  0  0  0  0  0  0  0
   -4.8434    0.3626    1.1665 H   0  0  0  0  0  0  0  0  0  0  0  0
   -4.0488   -1.1073   -0.1966 O   0  0  0  0  0  0  0  0  0  0  0  0
  1  3  1  0  0  0  0
  1  8  1  0  0  0  0
  2  1  1  0  0  0  0
  4 14  1  0  0  0  0
  4  1  1  0  0  0  0
  5  4  1  0  0  0  0
  6  4  1  0  0  0  0
  8 10  1  0  0  0  0
  9  8  1  0  0  0  0
 11  8  1  0  0  0  0
 11 13  1  0  0  0  0
 12 11  1  0  0  0  0
 14 11  1  0  0  0  0
M  END
$$$$
Title Card Required
 OpenBabel06272217483D

 14 13  0  0  0  0  0  0  0  0999 V2000
   -1.9224   -0.2867   -0.0121 C   0  0  0  0  0  0  0  0  0  0  0  0
   -0.8999    0.0509   -0.4100 H   0  0  0  0  0  0  0  0  0  0  0  0
   -1.6760   -1.3433    0.5191 H   0  0  0  0  0  0  0  0  0  0  0  0
   -2.6865   -1.1311   -1.1557 C   0  0  0  0  0  0  0  0  0  0  0  0
   -2.1271   -2.1115   -1.3317 H   0  0  0  0  0  0  0  0  0  0  0  0
   -3.0877   -0.5370   -1.9482 H   0  0  0  0  0  0  0  0  0  0  0  0
    2.8389    0.2975    0.0814 Br  0  0  0  0  0 15  0  0  0  0  0  0
   -2.6607    0.7034    0.7117 C   0  0  0  0  0  0  0  0  0  0  0  0
   -2.2192    1.6525    0.3846 H   0  0  0  0  0  0  0  0  0  0  0  0
   -2.4265    0.5503    1.8156 H   0  0  0  0  0  0  0  0  0  0  0  0
   -4.1647    0.2543    0.2140 C   0  0  0  0  0  0  0  0  0  0  0  0
   -4.5972    0.9333   -0.5726 H   0  0  0  0  0  0  0  0  0  0  0  0
   -4.7962    0.3574    1.1921 H   0  0  0  0  0  0  0  0  0  0  0  0
   -4.0529   -1.0947   -0.1977 O   0  0  0  0  0  0  0  0  0  0  0  0
  1  3  1  0  0  0  0
  1  8  1  0  0  0  0
  2  1  1  0  0  0  0
  4 14  1  0  0  0  0
  4  1  1  0  0  0  0
  5  4  1  0  0  0  0
  6  4  1  0  0  0  0
  8 10  1  0  0  0  0
  9  8  1  0  0  0  0
 11  8  1  0  0  0  0
 11 13  1  0  0  0  0
 12 11  1  0  0  0  0
 14 11  1  0  0  0  0
M  END
$$$$
Title Card Required
 OpenBabel06272217483D

 14 13  0  0  0  0  0  0  0  0999 V2000
   -1.9238   -0.3022    0.0011 C   0  0  0  0  0  0  0  0  0  0  0  0
   -0.8946    0.1194   -0.4639 H   0  0  0  0  0  0  0  0  0  0  0  0
   -1.6441   -1.3714    0.4427 H   0  0  0  0  0  0  0  0  0  0  0  0
   -2.6993   -1.1149   -1.1487 C   0  0  0  0  0  0  0  0  0  0  0  0
   -2.1294   -2.1484   -1.2652 H   0  0  0  0  0  0  0  0  0  0  0  0
   -3.0757   -0.5529   -1.9375 H   0  0  0  0  0  0  0  0  0  0  0  0
    2.8374    0.2984    0.0812 Br  0  0  0  0  0 15  0  0  0  0  0  0
   -2.6434    0.7036    0.7233 C   0  0  0  0  0  0  0  0  0  0  0  0
   -2.1815    1.6303    0.3090 H   0  0  0  0  0  0  0  0  0  0  0  0
   -2.5204    0.5376    1.8062 H   0  0  0  0  0  0  0  0  0  0  0  0
   -4.1577    0.2397    0.1975 C   0  0  0  0  0  0  0  0  0  0  0  0
   -4.6035    0.8839   -0.5570 H   0  0  0  0  0  0  0  0  0  0  0  0
   -4.7383    0.3422    1.1895 H   0  0  0  0  0  0  0  0  0  0  0  0
   -4.0560   -1.0814   -0.2006 O   0  0  0  0  0  0  0  0  0  0  0  0
  1  3  1  0  0  0  0
  1  8  1  0  0  0  0
  2  1  1  0  0  0  0
  4 14  1  0  0  0  0
  4  1  1  0  0  0  0
  5  4  1  0  0  0  0
  6  4  1  0  0  0  0
  8 10  1  0  0  0  0
  9  8  1  0  0  0  0
 11  8  1  0  0  0  0
 11 13  1  0  0  0  0
 12 11  1  0  0  0  0
 14 11  1  0  0  0  0
M  END
$$$$
Title Card Required
 OpenBabel06272217483D

 14 13  0  0  0  0  0  0  0  0999 V2000
   -1.9162   -0.3263    0.0087 C   0  0  0  0  0  0  0  0  0  0  0  0
   -0.9221    0.1698   -0.4987 H   0  0  0  0  0  0  0  0  0  0  0  0
   -1.6107   -1.3507    0.3766 H   0  0  0  0  0  0  0  0  0  0  0  0
   -2.7141   -1.0974   -1.1328 C   0  0  0  0  0  0  0  0  0  0  0  0
   -2.1681   -2.1514   -1.1999 H   0  0  0  0  0  0  0  0  0  0  0  0
   -3.0664   -0.5574   -1.9675 H   0  0  0  0  0  0  0  0  0  0  0  0
    2.8359    0.2992    0.0811 Br  0  0  0  0  0 15  0  0  0  0  0  0
   -2.6289    0.7043    0.7337 C   0  0  0  0  0  0  0  0  0  0  0  0
   -2.1620    1.6104    0.2460 H   0  0  0  0  0  0  0  0  0  0  0  0
   -2.6220    0.5344    1.7935 H   0  0  0  0  0  0  0  0  0  0  0  0
   -4.1488    0.2253    0.1852 C   0  0  0  0  0  0  0  0  0  0  0  0
   -4.6100    0.8413   -0.5477 H   0  0  0  0  0  0  0  0  0  0  0  0
   -4.6771    0.3169    1.1589 H   0  0  0  0  0  0  0  0  0  0  0  0
   -4.0573   -1.0686   -0.2057 O   0  0  0  0  0  0  0  0  0  0  0  0
  1  3  1  0  0  0  0
  1  8  1  0  0  0  0
  2  1  1  0  0  0  0
  4 14  1  0  0  0  0
  4  1  1  0  0  0  0
  5  4  1  0  0  0  0
  6  4  1  0  0  0  0
  8 10  1  0  0  0  0
  9  8  1  0  0  0  0
 11  8  1  0  0  0  0
 11 13  1  0  0  0  0
 12 11  1  0  0  0  0
 14 11  1  0  0  0  0
M  END
$$$$
Title Card Required
 OpenBabel06272217483D

 14 13  0  0  0  0  0  0  0  0999 V2000
   -1.9008   -0.3539    0.0092 C   0  0  0  0  0  0  0  0  0  0  0  0
   -0.9796    0.1897   -0.5092 H   0  0  0  0  0  0  0  0  0  0  0  0
   -1.5719   -1.3007    0.3403 H   0  0  0  0  0  0  0  0  0  0  0  0
   -2.7302   -1.0807   -1.1101 C   0  0  0  0  0  0  0  0  0  0  0  0
   -2.2397   -2.1193   -1.1468 H   0  0  0  0  0  0  0  0  0  0  0  0
   -3.0567   -0.5545   -2.0260 H   0  0  0  0  0  0  0  0  0  0  0  0
    2.8343    0.3000    0.0809 Br  0  0  0  0  0 15  0  0  0  0  0  0
   -2.6185    0.7049    0.7395 C   0  0  0  0  0  0  0  0  0  0  0  0
   -2.1643    1.5915    0.2108 H   0  0  0  0  0  0  0  0  0  0  0  0
   -2.7144    0.5423    1.7936 H   0  0  0  0  0  0  0  0  0  0  0  0
   -4.1381    0.2130    0.1782 C   0  0  0  0  0  0  0  0  0  0  0  0
   -4.6220    0.8208   -0.5554 H   0  0  0  0  0  0  0  0  0  0  0  0
   -4.6300    0.2863    1.1188 H   0  0  0  0  0  0  0  0  0  0  0  0
   -4.0563   -1.0584   -0.2131 O   0  0  0  0  0  0  0  0  0  0  0  0
  1  3  1  0  0  0  0
  1  8  1  0  0  0  0
  2  1  1  0  0  0  0
  4 14  1  0  0  0  0
  4  1  1  0  0  0  0
  5  4  1  0  0  0  0
  6  4  1  0  0  0  0
  8 10  1  0  0  0  0
  9  8  1  0  0  0  0
 11  8  1  0  0  0  0
 11 13  1  0  0  0  0
 12 11  1  0  0  0  0
 14 11  1  0  0  0  0
M  END
$$$$
Title Card Required
 OpenBabel06272217483D

 14 13  0  0  0  0  0  0  0  0999 V2000
   -1.8811   -0.3800    0.0035 C   0  0  0  0  0  0  0  0  0  0  0  0
   -1.0516    0.1822   -0.5024 H   0  0  0  0  0  0  0  0  0  0  0  0
   -1.5179   -1.2592    0.3435 H   0  0  0  0  0  0  0  0  0  0  0  0
   -2.7481   -1.0642   -1.0839 C   0  0  0  0  0  0  0  0  0  0  0  0
   -2.3313   -2.0702   -1.1089 H   0  0  0  0  0  0  0  0  0  0  0  0
   -3.0391   -0.5561   -2.0829 H   0  0  0  0  0  0  0  0  0  0  0  0
    2.8329    0.3008    0.0808 Br  0  0  0  0  0 15  0  0  0  0  0  0
   -2.6119    0.7045    0.7406 C   0  0  0  0  0  0  0  0  0  0  0  0
   -2.1844    1.5760    0.2042 H   0  0  0  0  0  0  0  0  0  0  0  0
   -2.7915    0.5608    1.8069 H   0  0  0  0  0  0  0  0  0  0  0  0
   -4.1256    0.2041    0.1745 C   0  0  0  0  0  0  0  0  0  0  0  0
   -4.6371    0.8208   -0.5755 H   0  0  0  0  0  0  0  0  0  0  0  0
   -4.6092    0.2552    1.0924 H   0  0  0  0  0  0  0  0  0  0  0  0
   -4.0531   -1.0515   -0.2226 O   0  0  0  0  0  0  0  0  0  0  0  0
  1  3  1  0  0  0  0
  1  8  1  0  0  0  0
  2  1  1  0  0  0  0
  4 14  1  0  0  0  0
  4  1  1  0  0  0  0
  5  4  1  0  0  0  0
  6  4  1  0  0  0  0
  8 10  1  0  0  0  0
  9  8  1  0  0  0  0
 11  8  1  0  0  0  0
 11 13  1  0  0  0  0
 12 11  1  0  0  0  0
 14 11  1  0  0  0  0
M  END
$$$$
Title Card Required
 OpenBabel06272217483D

 14 13  0  0  0  0  0  0  0  0999 V2000
   -1.8605   -0.4020   -0.0068 C   0  0  0  0  0  0  0  0  0  0  0  0
   -1.1180    0.1596   -0.4908 H   0  0  0  0  0  0  0  0  0  0  0  0
   -1.4414   -1.2503    0.3874 H   0  0  0  0  0  0  0  0  0  0  0  0
   -2.7688   -1.0465   -1.0566 C   0  0  0  0  0  0  0  0  0  0  0  0
   -2.4288   -2.0290   -1.0859 H   0  0  0  0  0  0  0  0  0  0  0  0
   -3.0106   -0.5678   -2.1179 H   0  0  0  0  0  0  0  0  0  0  0  0
    2.8314    0.3016    0.0806 Br  0  0  0  0  0 15  0  0  0  0  0  0
   -2.6088    0.7019    0.7381 C   0  0  0  0  0  0  0  0  0  0  0  0
   -2.2159    1.5692    0.2200 H   0  0  0  0  0  0  0  0  0  0  0  0
   -2.8503    0.5897    1.8230 H   0  0  0  0  0  0  0  0  0  0  0  0
   -4.1120    0.1993    0.1720 C   0  0  0  0  0  0  0  0  0  0  0  0
   -4.6486    0.8319   -0.5969 H   0  0  0  0  0  0  0  0  0  0  0  0
   -4.6188    0.2262    1.0903 H   0  0  0  0  0  0  0  0  0  0  0  0
   -4.0478   -1.0476   -0.2341 O   0  0  0  0  0  0  0  0  0  0  0  0
  1  3  1  0  0  0  0
  1  8  1  0  0  0  0
  2  1  1  0  0  0  0
  4 14  1  0  0  0  0
  4  1  1  0  0  0  0
  5  4  1  0  0  0  0
  6  4  1  0  0  0  0
  8 10  1  0  0  0  0
  9  8  1  0  0  0  0
 11  8  1  0  0  0  0
 11 13  1  0  0  0  0
 12 11  1  0  0  0  0
 14 11  1  0  0  0  0
M  END
$$$$
Title Card Required
 OpenBabel06272217483D

 14 13  0  0  0  0  0  0  0  0999 V2000
   -1.8413   -0.4211   -0.0188 C   0  0  0  0  0  0  0  0  0  0  0  0
   -1.1551    0.1402   -0.4907 H   0  0  0  0  0  0  0  0  0  0  0  0
   -1.3499   -1.2641    0.4594 H   0  0  0  0  0  0  0  0  0  0  0  0
   -2.7921   -1.0273   -1.0297 C   0  0  0  0  0  0  0  0  0  0  0  0
   -2.5205   -2.0177   -1.0769 H   0  0  0  0  0  0  0  0  0  0  0  0
   -2.9732   -0.5880   -2.1230 H   0  0  0  0  0  0  0  0  0  0  0  0
    2.8300    0.3023    0.0805 Br  0  0  0  0  0 15  0  0  0  0  0  0
   -2.6093    0.6963    0.7339 C   0  0  0  0  0  0  0  0  0  0  0  0
   -2.2521    1.5773    0.2494 H   0  0  0  0  0  0  0  0  0  0  0  0
   -2.8881    0.6270    1.8315 H   0  0  0  0  0  0  0  0  0  0  0  0
   -4.0986    0.1992    0.1706 C   0  0  0  0  0  0  0  0  0  0  0  0
   -4.6506    0.8460   -0.6106 H   0  0  0  0  0  0  0  0  0  0  0  0
   -4.6526    0.2006    1.1052 H   0  0  0  0  0  0  0  0  0  0  0  0
   -4.0406   -1.0465   -0.2475 O   0  0  0  0  0  0  0  0  0  0  0  0
  1  3  1  0  0  0  0
  1  8  1  0  0  0  0
  2  1  1  0  0  0  0
  4 14  1  0  0  0  0
  4  1  1  0  0  0  0
  5  4  1  0  0  0  0
  6  4  1  0  0  0  0
  8 10  1  0  0  0  0
  9  8  1  0  0  0  0
 11  8  1  0  0  0  0
 11 13  1  0  0  0  0
 12 11  1  0  0  0  0
 14 11  1  0  0  0  0
M  END
$$$$
Title Card Required
 OpenBabel06272217483D

 14 13  0  0  0  0  0  0  0  0999 V2000
   -1.8243   -0.4397   -0.0296 C   0  0  0  0  0  0  0  0  0  0  0  0
   -1.1490    0.1383   -0.5131 H   0  0  0  0  0  0  0  0  0  0  0  0
   -1.2598   -1.2759    0.5388 H   0  0  0  0  0  0  0  0  0  0  0  0
   -2.8167   -1.0077   -1.0039 C   0  0  0  0  0  0  0  0  0  0  0  0
   -2.6019   -2.0396   -1.0802 H   0  0  0  0  0  0  0  0  0  0  0  0
   -2.9308   -0.6119   -2.0997 H   0  0  0  0  0  0  0  0  0  0  0  0
    2.8287    0.3030    0.0803 Br  0  0  0  0  0 15  0  0  0  0  0  0
   -2.6133    0.6877    0.7288 C   0  0  0  0  0  0  0  0  0  0  0  0
   -2.2880    1.6022    0.2848 H   0  0  0  0  0  0  0  0  0  0  0  0
   -2.9039    0.6690    1.8277 H   0  0  0  0  0  0  0  0  0  0  0  0
   -4.0868    0.2035    0.1710 C   0  0  0  0  0  0  0  0  0  0  0  0
   -4.6407    0.8584   -0.6125 H   0  0  0  0  0  0  0  0  0  0  0  0
   -4.6984    0.1793    1.1209 H   0  0  0  0  0  0  0  0  0  0  0  0
   -4.0321   -1.0472   -0.2623 O   0  0  0  0  0  0  0  0  0  0  0  0
  1  3  1  0  0  0  0
  1  8  1  0  0  0  0
  2  1  1  0  0  0  0
  4 14  1  0  0  0  0
  4  1  1  0  0  0  0
  5  4  1  0  0  0  0
  6  4  1  0  0  0  0
  8 10  1  0  0  0  0
  9  8  1  0  0  0  0
 11  8  1  0  0  0  0
 11 13  1  0  0  0  0
 12 11  1  0  0  0  0
 14 11  1  0  0  0  0
M  END
$$$$
Title Card Required
 OpenBabel06272217483D

 14 13  0  0  0  0  0  0  0  0999 V2000
   -1.8082   -0.4587   -0.0377 C   0  0  0  0  0  0  0  0  0  0  0  0
   -1.1074    0.1506   -0.5546 H   0  0  0  0  0  0  0  0  0  0  0  0
   -1.1839   -1.2707    0.6094 H   0  0  0  0  0  0  0  0  0  0  0  0
   -2.8413   -0.9902   -0.9798 C   0  0  0  0  0  0  0  0  0  0  0  0
   -2.6737   -2.0787   -1.0934 H   0  0  0  0  0  0  0  0  0  0  0  0
   -2.8877   -0.6338   -2.0549 H   0  0  0  0  0  0  0  0  0  0  0  0
    2.8274    0.3036    0.0802 Br  0  0  0  0  0 15  0  0  0  0  0  0
   -2.6203    0.6765    0.7234 C   0  0  0  0  0  0  0  0  0  0  0  0
   -2.3223    1.6399    0.3227 H   0  0  0  0  0  0  0  0  0  0  0  0
   -2.8995    0.7119    1.8125 H   0  0  0  0  0  0  0  0  0  0  0  0
   -4.0774    0.2115    0.1740 C   0  0  0  0  0  0  0  0  0  0  0  0
   -4.6192    0.8679   -0.6028 H   0  0  0  0  0  0  0  0  0  0  0  0
   -4.7453    0.1628    1.1251 H   0  0  0  0  0  0  0  0  0  0  0  0
   -4.0231   -1.0489   -0.2778 O   0  0  0  0  0  0  0  0  0  0  0  0
  1  3  1  0  0  0  0
  1  8  1  0  0  0  0
  2  1  1  0  0  0  0
  4 14  1  0  0  0  0
  4  1  1  0  0  0  0
  5  4  1  0  0  0  0
  6  4  1  0  0  0  0
  8 10  1  0  0  0  0
  9  8  1  0  0  0  0
 11  8  1  0  0  0  0
 11 13  1  0  0  0  0
 12 11  1  0  0  0  0
 14 11  1  0  0  0  0
M  END
$$$$
Title Card Required
 OpenBabel06272217483D

 14 13  0  0  0  0  0  0  0  0999 V2000
   -1.7907   -0.4775   -0.0435 C   0  0  0  0  0  0  0  0  0  0  0  0
   -1.0480    0.1635   -0.6042 H   0  0  0  0  0  0  0  0  0  0  0  0
   -1.1270   -1.2434    0.6640 H   0  0  0  0  0  0  0  0  0  0  0  0
   -2.8649   -0.9769   -0.9569 C   0  0  0  0  0  0  0  0  0  0  0  0
   -2.7384   -2.1176   -1.1141 H   0  0  0  0  0  0  0  0  0  0  0  0
   -2.8458   -0.6482   -1.9973 H   0  0  0  0  0  0  0  0  0  0  0  0
    2.8260    0.3043    0.0800 Br  0  0  0  0  0 15  0  0  0  0  0  0
   -2.6300    0.6633    0.7170 C   0  0  0  0  0  0  0  0  0  0  0  0
   -2.3571    1.6828    0.3634 H   0  0  0  0  0  0  0  0  0  0  0  0
   -2.8768    0.7532    1.7901 H   0  0  0  0  0  0  0  0  0  0  0  0
   -4.0708    0.2228    0.1802 C   0  0  0  0  0  0  0  0  0  0  0  0
   -4.5865    0.8751   -0.5831 H   0  0  0  0  0  0  0  0  0  0  0  0
   -4.7875    0.1517    1.1120 H   0  0  0  0  0  0  0  0  0  0  0  0
   -4.0140   -1.0508   -0.2940 O   0  0  0  0  0  0  0  0  0  0  0  0
  1  3  1  0  0  0  0
  1  8  1  0  0  0  0
  2  1  1  0  0  0  0
  4 14  1  0  0  0  0
  4  1  1  0  0  0  0
  5  4  1  0  0  0  0
  6  4  1  0  0  0  0
  8 10  1  0  0  0  0
  9  8  1  0  0  0  0
 11  8  1  0  0  0  0
 11 13  1  0  0  0  0
 12 11  1  0  0  0  0
 14 11  1  0  0  0  0
M  END
$$$$
Title Card Required
 OpenBabel06272217483D

 14 13  0  0  0  0  0  0  0  0999 V2000
   -1.7691   -0.4954   -0.0474 C   0  0  0  0  0  0  0  0  0  0  0  0
   -0.9864    0.1625   -0.6512 H   0  0  0  0  0  0  0  0  0  0  0  0
   -1.0929   -1.1912    0.6976 H   0  0  0  0  0  0  0  0  0  0  0  0
   -2.8864   -0.9702   -0.9344 C   0  0  0  0  0  0  0  0  0  0  0  0
   -2.7962   -2.1437   -1.1411 H   0  0  0  0  0  0  0  0  0  0  0  0
   -2.8065   -0.6475   -1.9385 H   0  0  0  0  0  0  0  0  0  0  0  0
    2.8245    0.3050    0.0798 Br  0  0  0  0  0 15  0  0  0  0  0  0
   -2.6423    0.6485    0.7089 C   0  0  0  0  0  0  0  0  0  0  0  0
   -2.3948    1.7215    0.4075 H   0  0  0  0  0  0  0  0  0  0  0  0
   -2.8355    0.7900    1.7670 H   0  0  0  0  0  0  0  0  0  0  0  0
   -4.0671    0.2371    0.1905 C   0  0  0  0  0  0  0  0  0  0  0  0
   -4.5433    0.8833   -0.5566 H   0  0  0  0  0  0  0  0  0  0  0  0
   -4.8212    0.1469    1.0781 H   0  0  0  0  0  0  0  0  0  0  0  0
   -4.0060   -1.0521   -0.3107 O   0  0  0  0  0  0  0  0  0  0  0  0
  1  3  1  0  0  0  0
  1  8  1  0  0  0  0
  2  1  1  0  0  0  0
  4 14  1  0  0  0  0
  4  1  1  0  0  0  0
  5  4  1  0  0  0  0
  6  4  1  0  0  0  0
  8 10  1  0  0  0  0
  9  8  1  0  0  0  0
 11  8  1  0  0  0  0
 11 13  1  0  0  0  0
 12 11  1  0  0  0  0
 14 11  1  0  0  0  0
M  END
$$$$
Title Card Required
 OpenBabel06272217483D

 14 13  0  0  0  0  0  0  0  0999 V2000
   -1.7423   -0.5110   -0.0495 C   0  0  0  0  0  0  0  0  0  0  0  0
   -0.9372    0.1351   -0.6849 H   0  0  0  0  0  0  0  0  0  0  0  0
   -1.0867   -1.1153    0.7049 H   0  0  0  0  0  0  0  0  0  0  0  0
   -2.9023   -0.9734   -0.9132 C   0  0  0  0  0  0  0  0  0  0  0  0
   -2.8418   -2.1467   -1.1732 H   0  0  0  0  0  0  0  0  0  0  0  0
   -2.7719   -0.6211   -1.8958 H   0  0  0  0  0  0  0  0  0  0  0  0
    2.8229    0.3057    0.0796 Br  0  0  0  0  0 15  0  0  0  0  0  0
   -2.6569    0.6334    0.6982 C   0  0  0  0  0  0  0  0  0  0  0  0
   -2.4364    1.7435    0.4525 H   0  0  0  0  0  0  0  0  0  0  0  0
   -2.7755    0.8169    1.7536 H   0  0  0  0  0  0  0  0  0  0  0  0
   -4.0667    0.2539    0.2058 C   0  0  0  0  0  0  0  0  0  0  0  0
   -4.4932    0.8993   -0.5315 H   0  0  0  0  0  0  0  0  0  0  0  0
   -4.8429    0.1508    1.0236 H   0  0  0  0  0  0  0  0  0  0  0  0
   -4.0012   -1.0519   -0.3267 O   0  0  0  0  0  0  0  0  0  0  0  0
  1  8  1  0  0  0  0
  1  3  1  0  0  0  0
  2  1  1  0  0  0  0
  4 14  1  0  0  0  0
  4  1  1  0  0  0  0
  5  4  1  0  0  0  0
  6  4  1  0  0  0  0
  8 10  1  0  0  0  0
  9  8  1  0  0  0  0
 11  8  1  0  0  0  0
 11 13  1  0  0  0  0
 12 11  1  0  0  0  0
 14 11  1  0  0  0  0
M  END
$$$$
Title Card Required
 OpenBabel06272217483D

 14 13  0  0  0  0  0  0  0  0999 V2000
   -1.7123   -0.5214   -0.0502 C   0  0  0  0  0  0  0  0  0  0  0  0
   -0.9124    0.0783   -0.6972 H   0  0  0  0  0  0  0  0  0  0  0  0
   -1.1052   -1.0313    0.6907 H   0  0  0  0  0  0  0  0  0  0  0  0
   -2.9077   -0.9880   -0.8965 C   0  0  0  0  0  0  0  0  0  0  0  0
   -2.8668   -2.1234   -1.2073 H   0  0  0  0  0  0  0  0  0  0  0  0
   -2.7464   -0.5648   -1.8791 H   0  0  0  0  0  0  0  0  0  0  0  0
    2.8212    0.3065    0.0794 Br  0  0  0  0  0 15  0  0  0  0  0  0
   -2.6720    0.6198    0.6857 C   0  0  0  0  0  0  0  0  0  0  0  0
   -2.4781    1.7392    0.4893 H   0  0  0  0  0  0  0  0  0  0  0  0
   -2.7021    0.8262    1.7571 H   0  0  0  0  0  0  0  0  0  0  0  0
   -4.0695    0.2707    0.2249 C   0  0  0  0  0  0  0  0  0  0  0  0
   -4.4450    0.9298   -0.5206 H   0  0  0  0  0  0  0  0  0  0  0  0
   -4.8543    0.1640    0.9625 H   0  0  0  0  0  0  0  0  0  0  0  0
   -4.0026   -1.0492   -0.3394 O   0  0  0  0  0  0  0  0  0  0  0  0
  1  8  1  0  0  0  0
  1  3  1  0  0  0  0
  2  1  1  0  0  0  0
  4 14  1  0  0  0  0
  4  1  1  0  0  0  0
  5  4  1  0  0  0  0
  6  4  1  0  0  0  0
  8 10  1  0  0  0  0
  9  8  1  0  0  0  0
 11  8  1  0  0  0  0
 11 13  1  0  0  0  0
 12 11  1  0  0  0  0
 14 11  1  0  0  0  0
M  END
$$$$
Title Card Required
 OpenBabel06272217483D

 14 13  0  0  0  0  0  0  0  0999 V2000
   -1.6836   -0.5252   -0.0514 C   0  0  0  0  0  0  0  0  0  0  0  0
   -0.9112    0.0017   -0.6906 H   0  0  0  0  0  0  0  0  0  0  0  0
   -1.1287   -0.9649    0.6796 H   0  0  0  0  0  0  0  0  0  0  0  0
   -2.9008   -1.0117   -0.8871 C   0  0  0  0  0  0  0  0  0  0  0  0
   -2.8687   -2.0825   -1.2411 H   0  0  0  0  0  0  0  0  0  0  0  0
   -2.7331   -0.4883   -1.8754 H   0  0  0  0  0  0  0  0  0  0  0  0
    2.8195    0.3073    0.0793 Br  0  0  0  0  0 15  0  0  0  0  0  0
   -2.6856    0.6090    0.6736 C   0  0  0  0  0  0  0  0  0  0  0  0
   -2.5157    1.7117    0.5105 H   0  0  0  0  0  0  0  0  0  0  0  0
   -2.6227    0.8133    1.7716 H   0  0  0  0  0  0  0  0  0  0  0  0
   -4.0739    0.2857    0.2448 C   0  0  0  0  0  0  0  0  0  0  0  0
   -4.4032    0.9733   -0.5270 H   0  0  0  0  0  0  0  0  0  0  0  0
   -4.8680    0.1839    0.9164 H   0  0  0  0  0  0  0  0  0  0  0  0
   -4.0111   -1.0436   -0.3472 O   0  0  0  0  0  0  0  0  0  0  0  0
  1  8  1  0  0  0  0
  1  3  1  0  0  0  0
  2  1  1  0  0  0  0
  4 14  1  0  0  0  0
  4  1  1  0  0  0  0
  5  4  1  0  0  0  0
  6  4  1  0  0  0  0
  8 10  1  0  0  0  0
  9  8  1  0  0  0  0
 11  8  1  0  0  0  0
 11 13  1  0  0  0  0
 12 11  1  0  0  0  0
 14 11  1  0  0  0  0
M  END
$$$$
Title Card Required
 OpenBabel06272217483D

 14 13  0  0  0  0  0  0  0  0999 V2000
   -1.6599   -0.5227   -0.0545 C   0  0  0  0  0  0  0  0  0  0  0  0
   -0.9207   -0.0792   -0.6775 H   0  0  0  0  0  0  0  0  0  0  0  0
   -1.1360   -0.9347    0.7005 H   0  0  0  0  0  0  0  0  0  0  0  0
   -2.8829   -1.0409   -0.8854 C   0  0  0  0  0  0  0  0  0  0  0  0
   -2.8501   -2.0398   -1.2762 H   0  0  0  0  0  0  0  0  0  0  0  0
   -2.7326   -0.4060   -1.8658 H   0  0  0  0  0  0  0  0  0  0  0  0
    2.8178    0.3080    0.0791 Br  0  0  0  0  0 15  0  0  0  0  0  0
   -2.6966    0.6008    0.6637 C   0  0  0  0  0  0  0  0  0  0  0  0
   -2.5464    1.6727    0.5134 H   0  0  0  0  0  0  0  0  0  0  0  0
   -2.5431    0.7779    1.7848 H   0  0  0  0  0  0  0  0  0  0  0  0
   -4.0791    0.2989    0.2624 C   0  0  0  0  0  0  0  0  0  0  0  0
   -4.3661    1.0207   -0.5423 H   0  0  0  0  0  0  0  0  0  0  0  0
   -4.8971    0.2080    0.8993 H   0  0  0  0  0  0  0  0  0  0  0  0
   -4.0257   -1.0354   -0.3506 O   0  0  0  0  0  0  0  0  0  0  0  0
  1  8  1  0  0  0  0
  1  3  1  0  0  0  0
  2  1  1  0  0  0  0
  4 14  1  0  0  0  0
  4  1  1  0  0  0  0
  5  4  1  0  0  0  0
  6  4  1  0  0  0  0
  8 10  1  0  0  0  0
  9  8  1  0  0  0  0
 11  8  1  0  0  0  0
 11 13  1  0  0  0  0
 12 11  1  0  0  0  0
 14 11  1  0  0  0  0
M  END
$$$$
Title Card Required
 OpenBabel06272217483D

 14 13  0  0  0  0  0  0  0  0999 V2000
   -1.6433   -0.5160   -0.0585 C   0  0  0  0  0  0  0  0  0  0  0  0
   -0.9211   -0.1474   -0.6753 H   0  0  0  0  0  0  0  0  0  0  0  0
   -1.1252   -0.9404    0.7570 H   0  0  0  0  0  0  0  0  0  0  0  0
   -2.8576   -1.0710   -0.8898 C   0  0  0  0  0  0  0  0  0  0  0  0
   -2.8157   -2.0151   -1.3167 H   0  0  0  0  0  0  0  0  0  0  0  0
   -2.7429   -0.3316   -1.8405 H   0  0  0  0  0  0  0  0  0  0  0  0
    2.8162    0.3087    0.0789 Br  0  0  0  0  0 15  0  0  0  0  0  0
   -2.7039    0.5943    0.6572 C   0  0  0  0  0  0  0  0  0  0  0  0
   -2.5676    1.6372    0.4982 H   0  0  0  0  0  0  0  0  0  0  0  0
   -2.4694    0.7227    1.7871 H   0  0  0  0  0  0  0  0  0  0  0  0
   -4.0848    0.3102    0.2762 C   0  0  0  0  0  0  0  0  0  0  0  0
   -4.3318    1.0615   -0.5555 H   0  0  0  0  0  0  0  0  0  0  0  0
   -4.9417    0.2353    0.9104 H   0  0  0  0  0  0  0  0  0  0  0  0
   -4.0442   -1.0251   -0.3506 O   0  0  0  0  0  0  0  0  0  0  0  0
  1  8  1  0  0  0  0
  1  3  1  0  0  0  0
  2  1  1  0  0  0  0
  4 14  1  0  0  0  0
  4  1  1  0  0  0  0
  5  4  1  0  0  0  0
  6  4  1  0  0  0  0
  8 10  1  0  0  0  0
  9  8  1  0  0  0  0
 11  8  1  0  0  0  0
 11 13  1  0  0  0  0
 12 11  1  0  0  0  0
 14 11  1  0  0  0  0
M  END
$$$$
Title Card Required
 OpenBabel06272217483D

 14 13  0  0  0  0  0  0  0  0999 V2000
   -1.6337   -0.5078   -0.0607 C   0  0  0  0  0  0  0  0  0  0  0  0
   -0.8961   -0.1931   -0.6968 H   0  0  0  0  0  0  0  0  0  0  0  0
   -1.1108   -0.9667    0.8260 H   0  0  0  0  0  0  0  0  0  0  0  0
   -2.8281   -1.0989   -0.8981 C   0  0  0  0  0  0  0  0  0  0  0  0
   -2.7698   -2.0214   -1.3673 H   0  0  0  0  0  0  0  0  0  0  0  0
   -2.7603   -0.2737   -1.7977 H   0  0  0  0  0  0  0  0  0  0  0  0
    2.8145    0.3094    0.0787 Br  0  0  0  0  0 15  0  0  0  0  0  0
   -2.7073    0.5885    0.6544 C   0  0  0  0  0  0  0  0  0  0  0  0
   -2.5777    1.6172    0.4672 H   0  0  0  0  0  0  0  0  0  0  0  0
   -2.4052    0.6524    1.7740 H   0  0  0  0  0  0  0  0  0  0  0  0
   -4.0918    0.3197    0.2860 C   0  0  0  0  0  0  0  0  0  0  0  0
   -4.3001    1.0900   -0.5598 H   0  0  0  0  0  0  0  0  0  0  0  0
   -4.9897    0.2667    0.9378 H   0  0  0  0  0  0  0  0  0  0  0  0
   -4.0643   -1.0133   -0.3483 O   0  0  0  0  0  0  0  0  0  0  0  0
  1  8  1  0  0  0  0
  1  3  1  0  0  0  0
  2  1  1  0  0  0  0
  4 14  1  0  0  0  0
  4  1  1  0  0  0  0
  5  4  1  0  0  0  0
  6  4  1  0  0  0  0
  8 10  1  0  0  0  0
  9  8  1  0  0  0  0
 11  8  1  0  0  0  0
 11 13  1  0  0  0  0
 12 11  1  0  0  0  0
 14 11  1  0  0  0  0
M  END
$$$$
Title Card Required
 OpenBabel06272217483D

 14 13  0  0  0  0  0  0  0  0999 V2000
   -1.6296   -0.4997   -0.0594 C   0  0  0  0  0  0  0  0  0  0  0  0
   -0.8477   -0.2185   -0.7380 H   0  0  0  0  0  0  0  0  0  0  0  0
   -1.1057   -0.9983    0.8826 H   0  0  0  0  0  0  0  0  0  0  0  0
   -2.7972   -1.1231   -0.9087 C   0  0  0  0  0  0  0  0  0  0  0  0
   -2.7171   -2.0556   -1.4266 H   0  0  0  0  0  0  0  0  0  0  0  0
   -2.7809   -0.2380   -1.7400 H   0  0  0  0  0  0  0  0  0  0  0  0
    2.8129    0.3101    0.0785 Br  0  0  0  0  0 15  0  0  0  0  0  0
   -2.7063    0.5828    0.6552 C   0  0  0  0  0  0  0  0  0  0  0  0
   -2.5761    1.6160    0.4244 H   0  0  0  0  0  0  0  0  0  0  0  0
   -2.3535    0.5728    1.7453 H   0  0  0  0  0  0  0  0  0  0  0  0
   -4.1008    0.3274    0.2924 C   0  0  0  0  0  0  0  0  0  0  0  0
   -4.2725    1.1043   -0.5522 H   0  0  0  0  0  0  0  0  0  0  0  0
   -5.0269    0.3022    0.9692 H   0  0  0  0  0  0  0  0  0  0  0  0
   -4.0847   -1.0005   -0.3447 O   0  0  0  0  0  0  0  0  0  0  0  0
  1  8  1  0  0  0  0
  1  3  1  0  0  0  0
  2  1  1  0  0  0  0
  4 14  1  0  0  0  0
  4  1  1  0  0  0  0
  5  4  1  0  0  0  0
  6  4  1  0  0  0  0
  8 10  1  0  0  0  0
  9  8  1  0  0  0  0
 11  8  1  0  0  0  0
 11 13  1  0  0  0  0
 12 11  1  0  0  0  0
 14 11  1  0  0  0  0
M  END
$$$$
Title Card Required
 OpenBabel06272217483D

 14 13  0  0  0  0  0  0  0  0999 V2000
   -1.6288   -0.4923   -0.0548 C   0  0  0  0  0  0  0  0  0  0  0  0
   -0.7914   -0.2313   -0.7826 H   0  0  0  0  0  0  0  0  0  0  0  0
   -1.1156   -1.0269    0.9129 H   0  0  0  0  0  0  0  0  0  0  0  0
   -2.7658   -1.1440   -0.9212 C   0  0  0  0  0  0  0  0  0  0  0  0
   -2.6609   -2.1031   -1.4877 H   0  0  0  0  0  0  0  0  0  0  0  0
   -2.8016   -0.2269   -1.6712 H   0  0  0  0  0  0  0  0  0  0  0  0
    2.8113    0.3107    0.0783 Br  0  0  0  0  0 15  0  0  0  0  0  0
   -2.7009    0.5774    0.6588 C   0  0  0  0  0  0  0  0  0  0  0  0
   -2.5630    1.6274    0.3745 H   0  0  0  0  0  0  0  0  0  0  0  0
   -2.3148    0.4882    1.7042 H   0  0  0  0  0  0  0  0  0  0  0  0
   -4.1123    0.3333    0.2961 C   0  0  0  0  0  0  0  0  0  0  0  0
   -4.2506    1.1054   -0.5330 H   0  0  0  0  0  0  0  0  0  0  0  0
   -5.0443    0.3418    0.9969 H   0  0  0  0  0  0  0  0  0  0  0  0
   -4.1048   -0.9871   -0.3401 O   0  0  0  0  0  0  0  0  0  0  0  0
  1  8  1  0  0  0  0
  1  3  1  0  0  0  0
  2  1  1  0  0  0  0
  4 14  1  0  0  0  0
  4  1  1  0  0  0  0
  5  4  1  0  0  0  0
  6  4  1  0  0  0  0
  8 10  1  0  0  0  0
  9  8  1  0  0  0  0
 11  8  1  0  0  0  0
 11 13  1  0  0  0  0
 12 11  1  0  0  0  0
 14 11  1  0  0  0  0
M  END
$$$$
Title Card Required
 OpenBabel06272217483D

 14 13  0  0  0  0  0  0  0  0999 V2000
   -1.6296   -0.4855   -0.0478 C   0  0  0  0  0  0  0  0  0  0  0  0
   -0.7439   -0.2375   -0.8133 H   0  0  0  0  0  0  0  0  0  0  0  0
   -1.1427   -1.0482    0.9087 H   0  0  0  0  0  0  0  0  0  0  0  0
   -2.7338   -1.1629   -0.9358 C   0  0  0  0  0  0  0  0  0  0  0  0
   -2.6034   -2.1471   -1.5415 H   0  0  0  0  0  0  0  0  0  0  0  0
   -2.8196   -0.2424   -1.5968 H   0  0  0  0  0  0  0  0  0  0  0  0
    2.8095    0.3114    0.0781 Br  0  0  0  0  0 15  0  0  0  0  0  0
   -2.6907    0.5727    0.6645 C   0  0  0  0  0  0  0  0  0  0  0  0
   -2.5380    1.6399    0.3232 H   0  0  0  0  0  0  0  0  0  0  0  0
   -2.2887    0.4018    1.6579 H   0  0  0  0  0  0  0  0  0  0  0  0
   -4.1264    0.3372    0.2974 C   0  0  0  0  0  0  0  0  0  0  0  0
   -4.2371    1.0966   -0.5044 H   0  0  0  0  0  0  0  0  0  0  0  0
   -5.0364    0.3855    1.0168 H   0  0  0  0  0  0  0  0  0  0  0  0
   -4.1249   -0.9730   -0.3347 O   0  0  0  0  0  0  0  0  0  0  0  0
  1  8  1  0  0  0  0
  1  3  1  0  0  0  0
  2  1  1  0  0  0  0
  4 14  1  0  0  0  0
  4  1  1  0  0  0  0
  5  4  1  0  0  0  0
  6  4  1  0  0  0  0
  8 10  1  0  0  0  0
  9  8  1  0  0  0  0
 11  8  1  0  0  0  0
 11 13  1  0  0  0  0
 12 11  1  0  0  0  0
 14 11  1  0  0  0  0
M  END
$$$$
Title Card Required
 OpenBabel06272217483D

 14 13  0  0  0  0  0  0  0  0999 V2000
   -1.6310   -0.4800   -0.0390 C   0  0  0  0  0  0  0  0  0  0  0  0
   -0.7204   -0.2390   -0.8143 H   0  0  0  0  0  0  0  0  0  0  0  0
   -1.1877   -1.0598    0.8640 H   0  0  0  0  0  0  0  0  0  0  0  0
   -2.7012   -1.1804   -0.9523 C   0  0  0  0  0  0  0  0  0  0  0  0
   -2.5479   -2.1718   -1.5775 H   0  0  0  0  0  0  0  0  0  0  0  0
   -2.8316   -0.2816   -1.5308 H   0  0  0  0  0  0  0  0  0  0  0  0
    2.8075    0.3122    0.0779 Br  0  0  0  0  0 15  0  0  0  0  0  0
   -2.6753    0.5697    0.6704 C   0  0  0  0  0  0  0  0  0  0  0  0
   -2.5002    1.6399    0.2801 H   0  0  0  0  0  0  0  0  0  0  0  0
   -2.2741    0.3181    1.6212 H   0  0  0  0  0  0  0  0  0  0  0  0
   -4.1422    0.3386    0.2969 C   0  0  0  0  0  0  0  0  0  0  0  0
   -4.2366    1.0851   -0.4733 H   0  0  0  0  0  0  0  0  0  0  0  0
   -5.0000    0.4321    1.0274 H   0  0  0  0  0  0  0  0  0  0  0  0
   -4.1452   -0.9585   -0.3284 O   0  0  0  0  0  0  0  0  0  0  0  0
  1  8  1  0  0  0  0
  1  3  1  0  0  0  0
  2  1  1  0  0  0  0
  4 14  1  0  0  0  0
  4  1  1  0  0  0  0
  5  4  1  0  0  0  0
  6  4  1  0  0  0  0
  8 10  1  0  0  0  0
  9  8  1  0  0  0  0
 11  8  1  0  0  0  0
 11 13  1  0  0  0  0
 12 11  1  0  0  0  0
 14 11  1  0  0  0  0
M  END
$$$$
Title Card Required
 OpenBabel06272217483D

 14 13  0  0  0  0  0  0  0  0999 V2000
   -1.6332   -0.4764   -0.0304 C   0  0  0  0  0  0  0  0  0  0  0  0
   -0.7319   -0.2350   -0.7741 H   0  0  0  0  0  0  0  0  0  0  0  0
   -1.2435   -1.0653    0.7854 H   0  0  0  0  0  0  0  0  0  0  0  0
   -2.6693   -1.1974   -0.9688 C   0  0  0  0  0  0  0  0  0  0  0  0
   -2.4998   -2.1654   -1.5857 H   0  0  0  0  0  0  0  0  0  0  0  0
   -2.8366   -0.3267   -1.5008 H   0  0  0  0  0  0  0  0  0  0  0  0
    2.8053    0.3129    0.0776 Br  0  0  0  0  0 15  0  0  0  0  0  0
   -2.6551    0.5691    0.6744 C   0  0  0  0  0  0  0  0  0  0  0  0
   -2.4500    1.6170    0.2577 H   0  0  0  0  0  0  0  0  0  0  0  0
   -2.2699    0.2458    1.6139 H   0  0  0  0  0  0  0  0  0  0  0  0
   -4.1571    0.3365    0.2948 C   0  0  0  0  0  0  0  0  0  0  0  0
   -4.2542    1.0843   -0.4532 H   0  0  0  0  0  0  0  0  0  0  0  0
   -4.9417    0.4777    1.0340 H   0  0  0  0  0  0  0  0  0  0  0  0
   -4.1652   -0.9445   -0.3214 O   0  0  0  0  0  0  0  0  0  0  0  0
  1  8  1  0  0  0  0
  1  3  1  0  0  0  0
  2  1  1  0  0  0  0
  4 14  1  0  0  0  0
  4  1  1  0  0  0  0
  5  4  1  0  0  0  0
  6  4  1  0  0  0  0
  8 10  1  0  0  0  0
  9  8  1  0  0  0  0
 11  8  1  0  0  0  0
 11 13  1  0  0  0  0
 12 11  1  0  0  0  0
 14 11  1  0  0  0  0
M  END
$$$$
Title Card Required
 OpenBabel06272217483D

 14 13  0  0  0  0  0  0  0  0999 V2000
   -1.6377   -0.4743   -0.0251 C   0  0  0  0  0  0  0  0  0  0  0  0
   -0.7750   -0.2226   -0.6970 H   0  0  0  0  0  0  0  0  0  0  0  0
   -1.2906   -1.0839    0.7084 H   0  0  0  0  0  0  0  0  0  0  0  0
   -2.6400   -1.2132   -0.9822 C   0  0  0  0  0  0  0  0  0  0  0  0
   -2.4639   -2.1332   -1.5659 H   0  0  0  0  0  0  0  0  0  0  0  0
   -2.8375   -0.3524   -1.5315 H   0  0  0  0  0  0  0  0  0  0  0  0
    2.8031    0.3137    0.0774 Br  0  0  0  0  0 15  0  0  0  0  0  0
   -2.6319    0.5702    0.6756 C   0  0  0  0  0  0  0  0  0  0  0  0
   -2.3910    1.5741    0.2641 H   0  0  0  0  0  0  0  0  0  0  0  0
   -2.2780    0.1968    1.6413 H   0  0  0  0  0  0  0  0  0  0  0  0
   -4.1672    0.3307    0.2908 C   0  0  0  0  0  0  0  0  0  0  0  0
   -4.2900    1.1035   -0.4542 H   0  0  0  0  0  0  0  0  0  0  0  0
   -4.8822    0.5169    1.0513 H   0  0  0  0  0  0  0  0  0  0  0  0
   -4.1837   -0.9327   -0.3143 O   0  0  0  0  0  0  0  0  0  0  0  0
  1  8  1  0  0  0  0
  1  3  1  0  0  0  0
  2  1  1  0  0  0  0
  4 14  1  0  0  0  0
  4  1  1  0  0  0  0
  5  4  1  0  0  0  0
  6  4  1  0  0  0  0
  8 10  1  0  0  0  0
  9  8  1  0  0  0  0
 11  8  1  0  0  0  0
 11 13  1  0  0  0  0
 12 11  1  0  0  0  0
 14 11  1  0  0  0  0
M  END
$$$$
Title Card Required
 OpenBabel06272217483D

 14 13  0  0  0  0  0  0  0  0999 V2000
   -1.6471   -0.4727   -0.0249 C   0  0  0  0  0  0  0  0  0  0  0  0
   -0.8248   -0.1961   -0.6072 H   0  0  0  0  0  0  0  0  0  0  0  0
   -1.3106   -1.1393    0.6735 H   0  0  0  0  0  0  0  0  0  0  0  0
   -2.6153   -1.2243   -0.9910 C   0  0  0  0  0  0  0  0  0  0  0  0
   -2.4392   -2.1031   -1.5324 H   0  0  0  0  0  0  0  0  0  0  0  0
   -2.8355   -0.3609   -1.6155 H   0  0  0  0  0  0  0  0  0  0  0  0
    2.8008    0.3145    0.0771 Br  0  0  0  0  0 15  0  0  0  0  0  0
   -2.6076    0.5707    0.6752 C   0  0  0  0  0  0  0  0  0  0  0  0
   -2.3265    1.5305    0.2949 H   0  0  0  0  0  0  0  0  0  0  0  0
   -2.3021    0.1806    1.6867 H   0  0  0  0  0  0  0  0  0  0  0  0
   -4.1699    0.3234    0.2839 C   0  0  0  0  0  0  0  0  0  0  0  0
   -4.3380    1.1346   -0.4692 H   0  0  0  0  0  0  0  0  0  0  0  0
   -4.8386    0.5463    1.0908 H   0  0  0  0  0  0  0  0  0  0  0  0
   -4.2000   -0.9238   -0.3076 O   0  0  0  0  0  0  0  0  0  0  0  0
  1  3  1  0  0  0  0
  1  8  1  0  0  0  0
  2  1  1  0  0  0  0
  4 14  1  0  0  0  0
  4  1  1  0  0  0  0
  5  4  1  0  0  0  0
  6  4  1  0  0  0  0
  8 10  1  0  0  0  0
  9  8  1  0  0  0  0
 11  8  1  0  0  0  0
 11 13  1  0  0  0  0
 12 11  1  0  0  0  0
 14 11  1  0  0  0  0
M  END
$$$$
Title Card Required
 OpenBabel06272217483D

 14 13  0  0  0  0  0  0  0  0999 V2000
   -1.6630   -0.4729   -0.0268 C   0  0  0  0  0  0  0  0  0  0  0  0
   -0.8455   -0.1468   -0.5343 H   0  0  0  0  0  0  0  0  0  0  0  0
   -1.3076   -1.2243    0.6771 H   0  0  0  0  0  0  0  0  0  0  0  0
   -2.5958   -1.2262   -0.9962 C   0  0  0  0  0  0  0  0  0  0  0  0
   -2.4201   -2.1081   -1.5027 H   0  0  0  0  0  0  0  0  0  0  0  0
   -2.8275   -0.3768   -1.7243 H   0  0  0  0  0  0  0  0  0  0  0  0
    2.7986    0.3153    0.0768 Br  0  0  0  0  0 15  0  0  0  0  0  0
   -2.5834    0.5679    0.6752 C   0  0  0  0  0  0  0  0  0  0  0  0
   -2.2560    1.5086    0.3397 H   0  0  0  0  0  0  0  0  0  0  0  0
   -2.3423    0.1990    1.7309 H   0  0  0  0  0  0  0  0  0  0  0  0
   -4.1659    0.3169    0.2743 C   0  0  0  0  0  0  0  0  0  0  0  0
   -4.3904    1.1618   -0.4836 H   0  0  0  0  0  0  0  0  0  0  0  0
   -4.8083    0.5630    1.1458 H   0  0  0  0  0  0  0  0  0  0  0  0
   -4.2140   -0.9179   -0.3016 O   0  0  0  0  0  0  0  0  0  0  0  0
  1  8  1  0  0  0  0
  1  3  1  0  0  0  0
  2  1  1  0  0  0  0
  4 14  1  0  0  0  0
  4  1  1  0  0  0  0
  5  4  1  0  0  0  0
  6  4  1  0  0  0  0
  8 10  1  0  0  0  0
  9  8  1  0  0  0  0
 11  8  1  0  0  0  0
 11 13  1  0  0  0  0
 12 11  1  0  0  0  0
 14 11  1  0  0  0  0
M  END
$$$$
Title Card Required
 OpenBabel06272217483D

 14 13  0  0  0  0  0  0  0  0999 V2000
   -1.6838   -0.4775   -0.0273 C   0  0  0  0  0  0  0  0  0  0  0  0
   -0.8232   -0.0759   -0.4904 H   0  0  0  0  0  0  0  0  0  0  0  0
   -1.2982   -1.3051    0.6892 H   0  0  0  0  0  0  0  0  0  0  0  0
   -2.5822   -1.2179   -0.9996 C   0  0  0  0  0  0  0  0  0  0  0  0
   -2.4040   -2.1543   -1.4804 H   0  0  0  0  0  0  0  0  0  0  0  0
   -2.8114   -0.4153   -1.8292 H   0  0  0  0  0  0  0  0  0  0  0  0
    2.7965    0.3160    0.0765 Br  0  0  0  0  0 15  0  0  0  0  0  0
   -2.5613    0.5614    0.6766 C   0  0  0  0  0  0  0  0  0  0  0  0
   -2.1826    1.5171    0.3891 H   0  0  0  0  0  0  0  0  0  0  0  0
   -2.3933    0.2460    1.7615 H   0  0  0  0  0  0  0  0  0  0  0  0
   -4.1573    0.3134    0.2635 C   0  0  0  0  0  0  0  0  0  0  0  0
   -4.4392    1.1737   -0.4873 H   0  0  0  0  0  0  0  0  0  0  0  0
   -4.7802    0.5634    1.1969 H   0  0  0  0  0  0  0  0  0  0  0  0
   -4.2251   -0.9149   -0.2967 O   0  0  0  0  0  0  0  0  0  0  0  0
  1  8  1  0  0  0  0
  1  3  1  0  0  0  0
  2  1  1  0  0  0  0
  4 14  1  0  0  0  0
  4  1  1  0  0  0  0
  5  4  1  0  0  0  0
  6  4  1  0  0  0  0
  8 10  1  0  0  0  0
  9  8  1  0  0  0  0
 11  8  1  0  0  0  0
 11 13  1  0  0  0  0
 12 11  1  0  0  0  0
 14 11  1  0  0  0  0
M  END
$$$$
Title Card Required
 OpenBabel06272217483D

 14 13  0  0  0  0  0  0  0  0999 V2000
   -1.7057   -0.4867   -0.0258 C   0  0  0  0  0  0  0  0  0  0  0  0
   -0.7820    0.0015   -0.4607 H   0  0  0  0  0  0  0  0  0  0  0  0
   -1.2940   -1.3606    0.6906 H   0  0  0  0  0  0  0  0  0  0  0  0
   -2.5739   -1.2024   -1.0039 C   0  0  0  0  0  0  0  0  0  0  0  0
   -2.3925   -2.2185   -1.4533 H   0  0  0  0  0  0  0  0  0  0  0  0
   -2.7877   -0.4779   -1.9166 H   0  0  0  0  0  0  0  0  0  0  0  0
    2.7944    0.3166    0.0762 Br  0  0  0  0  0 15  0  0  0  0  0  0
   -2.5416    0.5527    0.6795 C   0  0  0  0  0  0  0  0  0  0  0  0
   -2.1117    1.5435    0.4419 H   0  0  0  0  0  0  0  0  0  0  0  0
   -2.4496    0.3116    1.7771 H   0  0  0  0  0  0  0  0  0  0  0  0
   -4.1459    0.3135    0.2530 C   0  0  0  0  0  0  0  0  0  0  0  0
   -4.4809    1.1682   -0.4780 H   0  0  0  0  0  0  0  0  0  0  0  0
   -4.7462    0.5473    1.2314 H   0  0  0  0  0  0  0  0  0  0  0  0
   -4.2335   -0.9142   -0.2927 O   0  0  0  0  0  0  0  0  0  0  0  0
  1  8  1  0  0  0  0
  1  3  1  0  0  0  0
  2  1  1  0  0  0  0
  4 14  1  0  0  0  0
  4  1  1  0  0  0  0
  5  4  1  0  0  0  0
  6  4  1  0  0  0  0
  8 10  1  0  0  0  0
  9  8  1  0  0  0  0
 11  8  1  0  0  0  0
 11 13  1  0  0  0  0
 12 11  1  0  0  0  0
 14 11  1  0  0  0  0
M  END
$$$$
Title Card Required
 OpenBabel06272217483D

 14 13  0  0  0  0  0  0  0  0999 V2000
   -1.7258   -0.4998   -0.0228 C   0  0  0  0  0  0  0  0  0  0  0  0
   -0.7497    0.0695   -0.4296 H   0  0  0  0  0  0  0  0  0  0  0  0
   -1.2997   -1.3848    0.6753 H   0  0  0  0  0  0  0  0  0  0  0  0
   -2.5698   -1.1826   -1.0111 C   0  0  0  0  0  0  0  0  0  0  0  0
   -2.3882   -2.2759   -1.4080 H   0  0  0  0  0  0  0  0  0  0  0  0
   -2.7566   -0.5629   -1.9834 H   0  0  0  0  0  0  0  0  0  0  0  0
    2.7922    0.3173    0.0760 Br  0  0  0  0  0 15  0  0  0  0  0  0
   -2.5236    0.5436    0.6836 C   0  0  0  0  0  0  0  0  0  0  0  0
   -2.0486    1.5702    0.5002 H   0  0  0  0  0  0  0  0  0  0  0  0
   -2.5085    0.3893    1.7815 H   0  0  0  0  0  0  0  0  0  0  0  0
   -4.1320    0.3174    0.2431 C   0  0  0  0  0  0  0  0  0  0  0  0
   -4.5147    1.1467   -0.4564 H   0  0  0  0  0  0  0  0  0  0  0  0
   -4.7026    0.5151    1.2449 H   0  0  0  0  0  0  0  0  0  0  0  0
   -4.2396   -0.9156   -0.2896 O   0  0  0  0  0  0  0  0  0  0  0  0
  1  3  1  0  0  0  0
  1  8  1  0  0  0  0
  2  1  1  0  0  0  0
  4 14  1  0  0  0  0
  4  1  1  0  0  0  0
  5  4  1  0  0  0  0
  6  4  1  0  0  0  0
  8 10  1  0  0  0  0
  9  8  1  0  0  0  0
 11  8  1  0  0  0  0
 11 13  1  0  0  0  0
 12 11  1  0  0  0  0
 14 11  1  0  0  0  0
M  END
$$$$
Title Card Required
 OpenBabel06272217483D

 14 13  0  0  0  0  0  0  0  0999 V2000
   -1.7416   -0.5157   -0.0183 C   0  0  0  0  0  0  0  0  0  0  0  0
   -0.7441    0.1129   -0.3913 H   0  0  0  0  0  0  0  0  0  0  0  0
   -1.3174   -1.3756    0.6427 H   0  0  0  0  0  0  0  0  0  0  0  0
   -2.5703   -1.1615   -1.0222 C   0  0  0  0  0  0  0  0  0  0  0  0
   -2.3934   -2.3068   -1.3374 H   0  0  0  0  0  0  0  0  0  0  0  0
   -2.7198   -0.6634   -2.0280 H   0  0  0  0  0  0  0  0  0  0  0  0
    2.7900    0.3180    0.0756 Br  0  0  0  0  0 15  0  0  0  0  0  0
   -2.5075    0.5363    0.6887 C   0  0  0  0  0  0  0  0  0  0  0  0
   -2.0011    1.5818    0.5620 H   0  0  0  0  0  0  0  0  0  0  0  0
   -2.5661    0.4705    1.7809 H   0  0  0  0  0  0  0  0  0  0  0  0
   -4.1158    0.3248    0.2347 C   0  0  0  0  0  0  0  0  0  0  0  0
   -4.5397    1.1141   -0.4265 H   0  0  0  0  0  0  0  0  0  0  0  0
   -4.6500    0.4683    1.2362 H   0  0  0  0  0  0  0  0  0  0  0  0
   -4.2428   -0.9189   -0.2877 O   0  0  0  0  0  0  0  0  0  0  0  0
  1  3  1  0  0  0  0
  1  8  1  0  0  0  0
  2  1  1  0  0  0  0
  4 14  1  0  0  0  0
  4  1  1  0  0  0  0
  5  4  1  0  0  0  0
  6  4  1  0  0  0  0
  8 10  1  0  0  0  0
  9  8  1  0  0  0  0
 11  8  1  0  0  0  0
 11 13  1  0  0  0  0
 12 11  1  0  0  0  0
 14 11  1  0  0  0  0
M  END
$$$$
Title Card Required
 OpenBabel06272217483D

 14 13  0  0  0  0  0  0  0  0999 V2000
   -1.7516   -0.5323   -0.0127 C   0  0  0  0  0  0  0  0  0  0  0  0
   -0.7719    0.1213   -0.3477 H   0  0  0  0  0  0  0  0  0  0  0  0
   -1.3446   -1.3410    0.6003 H   0  0  0  0  0  0  0  0  0  0  0  0
   -2.5756   -1.1422   -1.0366 C   0  0  0  0  0  0  0  0  0  0  0  0
   -2.4085   -2.3005   -1.2435 H   0  0  0  0  0  0  0  0  0  0  0  0
   -2.6812   -0.7649   -2.0557 H   0  0  0  0  0  0  0  0  0  0  0  0
    2.7876    0.3187    0.0753 Br  0  0  0  0  0 15  0  0  0  0  0  0
   -2.4941    0.5325    0.6944 C   0  0  0  0  0  0  0  0  0  0  0  0
   -1.9747    1.5704    0.6204 H   0  0  0  0  0  0  0  0  0  0  0  0
   -2.6172    0.5438    1.7818 H   0  0  0  0  0  0  0  0  0  0  0  0
   -4.0974    0.3342    0.2283 C   0  0  0  0  0  0  0  0  0  0  0  0
   -4.5573    1.0825   -0.3977 H   0  0  0  0  0  0  0  0  0  0  0  0
   -4.5943    0.4120    1.2114 H   0  0  0  0  0  0  0  0  0  0  0  0
   -4.2425   -0.9237   -0.2874 O   0  0  0  0  0  0  0  0  0  0  0  0
  1  3  1  0  0  0  0
  1  8  1  0  0  0  0
  2  1  1  0  0  0  0
  4 14  1  0  0  0  0
  4  1  1  0  0  0  0
  5  4  1  0  0  0  0
  6  4  1  0  0  0  0
  8 10  1  0  0  0  0
  9  8  1  0  0  0  0
 11  8  1  0  0  0  0
 11 13  1  0  0  0  0
 12 11  1  0  0  0  0
 14 11  1  0  0  0  0
M  END
$$$$
Title Card Required
 OpenBabel06272217483D

 14 13  0  0  0  0  0  0  0  0999 V2000
   -1.7562   -0.5473   -0.0069 C   0  0  0  0  0  0  0  0  0  0  0  0
   -0.8297    0.0926   -0.3034 H   0  0  0  0  0  0  0  0  0  0  0  0
   -1.3717   -1.3045    0.5655 H   0  0  0  0  0  0  0  0  0  0  0  0
   -2.5859   -1.1266   -1.0522 C   0  0  0  0  0  0  0  0  0  0  0  0
   -2.4335   -2.2586   -1.1319 H   0  0  0  0  0  0  0  0  0  0  0  0
   -2.6441   -0.8537   -2.0819 H   0  0  0  0  0  0  0  0  0  0  0  0
    2.7852    0.3194    0.0750 Br  0  0  0  0  0 15  0  0  0  0  0  0
   -2.4841    0.5329    0.7011 C   0  0  0  0  0  0  0  0  0  0  0  0
   -1.9687    1.5380    0.6678 H   0  0  0  0  0  0  0  0  0  0  0  0
   -2.6590    0.6006    1.7873 H   0  0  0  0  0  0  0  0  0  0  0  0
   -4.0761    0.3441    0.2242 C   0  0  0  0  0  0  0  0  0  0  0  0
   -4.5722    1.0657   -0.3803 H   0  0  0  0  0  0  0  0  0  0  0  0
   -4.5443    0.3519    1.1849 H   0  0  0  0  0  0  0  0  0  0  0  0
   -4.2381   -0.9296   -0.2890 O   0  0  0  0  0  0  0  0  0  0  0  0
  1  3  1  0  0  0  0
  1  8  1  0  0  0  0
  2  1  1  0  0  0  0
  4 14  1  0  0  0  0
  4  1  1  0  0  0  0
  5  4  1  0  0  0  0
  6  4  1  0  0  0  0
  8 10  1  0  0  0  0
  9  8  1  0  0  0  0
 11  8  1  0  0  0  0
 11 13  1  0  0  0  0
 12 11  1  0  0  0  0
 14 11  1  0  0  0  0
M  END
$$$$
Title Card Required
 OpenBabel06272217483D

 14 13  0  0  0  0  0  0  0  0999 V2000
   -1.7577   -0.5578   -0.0026 C   0  0  0  0  0  0  0  0  0  0  0  0
   -0.9027    0.0332   -0.2666 H   0  0  0  0  0  0  0  0  0  0  0  0
   -1.3844   -1.3013    0.5640 H   0  0  0  0  0  0  0  0  0  0  0  0
   -2.6017   -1.1152   -1.0668 C   0  0  0  0  0  0  0  0  0  0  0  0
   -2.4678   -2.1941   -1.0090 H   0  0  0  0  0  0  0  0  0  0  0  0
   -2.6101   -0.9214   -2.1214 H   0  0  0  0  0  0  0  0  0  0  0  0
    2.7826    0.3201    0.0747 Br  0  0  0  0  0 15  0  0  0  0  0  0
   -2.4786    0.5369    0.7093 C   0  0  0  0  0  0  0  0  0  0  0  0
   -1.9762    1.4964    0.6968 H   0  0  0  0  0  0  0  0  0  0  0  0
   -2.6890    0.6339    1.7974 H   0  0  0  0  0  0  0  0  0  0  0  0
   -4.0512    0.3533    0.2216 C   0  0  0  0  0  0  0  0  0  0  0  0
   -4.5873    1.0720   -0.3798 H   0  0  0  0  0  0  0  0  0  0  0  0
   -4.5097    0.2922    1.1734 H   0  0  0  0  0  0  0  0  0  0  0  0
   -4.2286   -0.9362   -0.2931 O   0  0  0  0  0  0  0  0  0  0  0  0
  1  3  1  0  0  0  0
  1  8  1  0  0  0  0
  2  1  1  0  0  0  0
  4  5  1  0  0  0  0
  4 14  1  0  0  0  0
  4  1  1  0  0  0  0
  6  4  1  0  0  0  0
  8 10  1  0  0  0  0
  9  8  1  0  0  0  0
 11  8  1  0  0  0  0
 11 13  1  0  0  0  0
 12 11  1  0  0  0  0
 14 11  1  0  0  0  0
M  END
$$$$
Title Card Required
 OpenBabel06272217483D

 14 13  0  0  0  0  0  0  0  0999 V2000
   -1.7593   -0.5636    0.0004 C   0  0  0  0  0  0  0  0  0  0  0  0
   -0.9519   -0.0329   -0.2531 H   0  0  0  0  0  0  0  0  0  0  0  0
   -1.3784   -1.3478    0.6064 H   0  0  0  0  0  0  0  0  0  0  0  0
   -2.6236   -1.1070   -1.0786 C   0  0  0  0  0  0  0  0  0  0  0  0
   -2.5105   -2.1354   -0.8847 H   0  0  0  0  0  0  0  0  0  0  0  0
   -2.5799   -0.9661   -2.1726 H   0  0  0  0  0  0  0  0  0  0  0  0
    2.7799    0.3209    0.0743 Br  0  0  0  0  0 15  0  0  0  0  0  0
   -2.4790    0.5430    0.7194 C   0  0  0  0  0  0  0  0  0  0  0  0
   -1.9848    1.4691    0.7004 H   0  0  0  0  0  0  0  0  0  0  0  0
   -2.7042    0.6371    1.8096 H   0  0  0  0  0  0  0  0  0  0  0  0
   -4.0234    0.3613    0.2201 C   0  0  0  0  0  0  0  0  0  0  0  0
   -4.5973    1.0971   -0.3907 H   0  0  0  0  0  0  0  0  0  0  0  0
   -4.4971    0.2386    1.1843 H   0  0  0  0  0  0  0  0  0  0  0  0
   -4.2132   -0.9428   -0.3003 O   0  0  0  0  0  0  0  0  0  0  0  0
  1  3  1  0  0  0  0
  1  8  1  0  0  0  0
  2  1  1  0  0  0  0
  4  5  1  0  0  0  0
  4 14  1  0  0  0  0
  4  1  1  0  0  0  0
  6  4  1  0  0  0  0
  8 10  1  0  0  0  0
  9  8  1  0  0  0  0
 11  8  1  0  0  0  0
 11 13  1  0  0  0  0
 12 11  1  0  0  0  0
 14 11  1  0  0  0  0
M  END
$$$$
Title Card Required
 OpenBabel06272217483D

 14 13  0  0  0  0  0  0  0  0999 V2000
   -1.7640   -0.5688    0.0050 C   0  0  0  0  0  0  0  0  0  0  0  0
   -0.9271   -0.0726   -0.2792 H   0  0  0  0  0  0  0  0  0  0  0  0
   -1.3698   -1.4144    0.6686 H   0  0  0  0  0  0  0  0  0  0  0  0
   -2.6512   -1.1008   -1.0873 C   0  0  0  0  0  0  0  0  0  0  0  0
   -2.5594   -2.1110   -0.7708 H   0  0  0  0  0  0  0  0  0  0  0  0
   -2.5553   -0.9912   -2.2156 H   0  0  0  0  0  0  0  0  0  0  0  0
    2.7771    0.3216    0.0739 Br  0  0  0  0  0 15  0  0  0  0  0  0
   -2.4862    0.5489    0.7313 C   0  0  0  0  0  0  0  0  0  0  0  0
   -1.9827    1.4777    0.6754 H   0  0  0  0  0  0  0  0  0  0  0  0
   -2.7017    0.6087    1.8213 H   0  0  0  0  0  0  0  0  0  0  0  0
   -3.9956    0.3682    0.2203 C   0  0  0  0  0  0  0  0  0  0  0  0
   -4.5904    1.1269   -0.4002 H   0  0  0  0  0  0  0  0  0  0  0  0
   -4.5036    0.1985    1.2048 H   0  0  0  0  0  0  0  0  0  0  0  0
   -4.1916   -0.9483   -0.3110 O   0  0  0  0  0  0  0  0  0  0  0  0
  1  3  1  0  0  0  0
  1  8  1  0  0  0  0
  2  1  1  0  0  0  0
  4  5  1  0  0  0  0
  4 14  1  0  0  0  0
  4  1  1  0  0  0  0
  6  4  1  0  0  0  0
  8 10  1  0  0  0  0
  9  8  1  0  0  0  0
 11  8  1  0  0  0  0
 11 13  1  0  0  0  0
 12 11  1  0  0  0  0
 14 11  1  0  0  0  0
M  END
$$$$
Title Card Required
 OpenBabel06272217483D

 14 13  0  0  0  0  0  0  0  0999 V2000
   -1.7695   -0.5747    0.0124 C   0  0  0  0  0  0  0  0  0  0  0  0
   -0.8454   -0.0904   -0.3334 H   0  0  0  0  0  0  0  0  0  0  0  0
   -1.3753   -1.4598    0.7162 H   0  0  0  0  0  0  0  0  0  0  0  0
   -2.6812   -1.0976   -1.0924 C   0  0  0  0  0  0  0  0  0  0  0  0
   -2.6094   -2.1183   -0.6866 H   0  0  0  0  0  0  0  0  0  0  0  0
   -2.5404   -1.0019   -2.2303 H   0  0  0  0  0  0  0  0  0  0  0  0
    2.7744    0.3224    0.0736 Br  0  0  0  0  0 15  0  0  0  0  0  0
   -2.4979    0.5540    0.7434 C   0  0  0  0  0  0  0  0  0  0  0  0
   -1.9736    1.5135    0.6299 H   0  0  0  0  0  0  0  0  0  0  0  0
   -2.6821    0.5581    1.8308 H   0  0  0  0  0  0  0  0  0  0  0  0
   -3.9721    0.3735    0.2227 C   0  0  0  0  0  0  0  0  0  0  0  0
   -4.5610    1.1474   -0.3990 H   0  0  0  0  0  0  0  0  0  0  0  0
   -4.5186    0.1795    1.2137 H   0  0  0  0  0  0  0  0  0  0  0  0
   -4.1658   -0.9516   -0.3242 O   0  0  0  0  0  0  0  0  0  0  0  0
  1  3  1  0  0  0  0
  1  8  1  0  0  0  0
  2  1  1  0  0  0  0
  4  5  1  0  0  0  0
  4 14  1  0  0  0  0
  4  1  1  0  0  0  0
  6  4  1  0  0  0  0
  8 10  1  0  0  0  0
  9  8  1  0  0  0  0
 11  8  1  0  0  0  0
 11 13  1  0  0  0  0
 12 11  1  0  0  0  0
 14 11  1  0  0  0  0
M  END
$$$$
Title Card Required
 OpenBabel06272217483D

 14 13  0  0  0  0  0  0  0  0999 V2000
   -1.7721   -0.5804    0.0213 C   0  0  0  0  0  0  0  0  0  0  0  0
   -0.7601   -0.1136   -0.3914 H   0  0  0  0  0  0  0  0  0  0  0  0
   -1.3982   -1.4723    0.7394 H   0  0  0  0  0  0  0  0  0  0  0  0
   -2.7131   -1.0984   -1.0934 C   0  0  0  0  0  0  0  0  0  0  0  0
   -2.6593   -2.1366   -0.6391 H   0  0  0  0  0  0  0  0  0  0  0  0
   -2.5364   -1.0031   -2.2156 H   0  0  0  0  0  0  0  0  0  0  0  0
    2.7718    0.3231    0.0732 Br  0  0  0  0  0 15  0  0  0  0  0  0
   -2.5114    0.5594    0.7547 C   0  0  0  0  0  0  0  0  0  0  0  0
   -1.9709    1.5511    0.5744 H   0  0  0  0  0  0  0  0  0  0  0  0
   -2.6484    0.4948    1.8399 H   0  0  0  0  0  0  0  0  0  0  0  0
   -3.9533    0.3772    0.2279 C   0  0  0  0  0  0  0  0  0  0  0  0
   -4.5110    1.1565   -0.3868 H   0  0  0  0  0  0  0  0  0  0  0  0
   -4.5351    0.1806    1.2025 H   0  0  0  0  0  0  0  0  0  0  0  0
   -4.1364   -0.9525   -0.3396 O   0  0  0  0  0  0  0  0  0  0  0  0
  1  3  1  0  0  0  0
  1  8  1  0  0  0  0
  2  1  1  0  0  0  0
  4  5  1  0  0  0  0
  4 14  1  0  0  0  0
  4  1  1  0  0  0  0
  6  4  1  0  0  0  0
  8 10  1  0  0  0  0
  9  8  1  0  0  0  0
 11  8  1  0  0  0  0
 11 13  1  0  0  0  0
 12 11  1  0  0  0  0
 14 11  1  0  0  0  0
M  END
$$$$
Title Card Required
 OpenBabel06272217483D

 14 13  0  0  0  0  0  0  0  0999 V2000
   -1.7700   -0.5849    0.0301 C   0  0  0  0  0  0  0  0  0  0  0  0
   -0.7042   -0.1536   -0.4364 H   0  0  0  0  0  0  0  0  0  0  0  0
   -1.4354   -1.4539    0.7392 H   0  0  0  0  0  0  0  0  0  0  0  0
   -2.7456   -1.1039   -1.0893 C   0  0  0  0  0  0  0  0  0  0  0  0
   -2.7052   -2.1531   -0.6326 H   0  0  0  0  0  0  0  0  0  0  0  0
   -2.5438   -0.9970   -2.1797 H   0  0  0  0  0  0  0  0  0  0  0  0
    2.7693    0.3237    0.0729 Br  0  0  0  0  0 15  0  0  0  0  0  0
   -2.5244    0.5656    0.7644 C   0  0  0  0  0  0  0  0  0  0  0  0
   -1.9834    1.5726    0.5199 H   0  0  0  0  0  0  0  0  0  0  0  0
   -2.6041    0.4281    1.8495 H   0  0  0  0  0  0  0  0  0  0  0  0
   -3.9393    0.3791    0.2355 C   0  0  0  0  0  0  0  0  0  0  0  0
   -4.4468    1.1577   -0.3685 H   0  0  0  0  0  0  0  0  0  0  0  0
   -4.5505    0.1987    1.1730 H   0  0  0  0  0  0  0  0  0  0  0  0
   -4.1048   -0.9506   -0.3569 O   0  0  0  0  0  0  0  0  0  0  0  0
  1  3  1  0  0  0  0
  1  8  1  0  0  0  0
  2  1  1  0  0  0  0
  4  5  1  0  0  0  0
  4 14  1  0  0  0  0
  4  1  1  0  0  0  0
  6  4  1  0  0  0  0
  8 10  1  0  0  0  0
  9  8  1  0  0  0  0
 11  8  1  0  0  0  0
 11 13  1  0  0  0  0
 12 11  1  0  0  0  0
 14 11  1  0  0  0  0
M  END
$$$$
Title Card Required
 OpenBabel06272217483D

 14 13  0  0  0  0  0  0  0  0999 V2000
   -1.7642   -0.5879    0.0371 C   0  0  0  0  0  0  0  0  0  0  0  0
   -0.6858   -0.2072   -0.4617 H   0  0  0  0  0  0  0  0  0  0  0  0
   -1.4799   -1.4162    0.7238 H   0  0  0  0  0  0  0  0  0  0  0  0
   -2.7768   -1.1134   -1.0797 C   0  0  0  0  0  0  0  0  0  0  0  0
   -2.7428   -2.1648   -0.6625 H   0  0  0  0  0  0  0  0  0  0  0  0
   -2.5606   -0.9845   -2.1373 H   0  0  0  0  0  0  0  0  0  0  0  0
    2.7669    0.3243    0.0725 Br  0  0  0  0  0 15  0  0  0  0  0  0
   -2.5353    0.5723    0.7720 C   0  0  0  0  0  0  0  0  0  0  0  0
   -2.0117    1.5724    0.4752 H   0  0  0  0  0  0  0  0  0  0  0  0
   -2.5544    0.3667    1.8580 H   0  0  0  0  0  0  0  0  0  0  0  0
   -3.9294    0.3789    0.2448 C   0  0  0  0  0  0  0  0  0  0  0  0
   -4.3789    1.1583   -0.3525 H   0  0  0  0  0  0  0  0  0  0  0  0
   -4.5658    0.2276    1.1338 H   0  0  0  0  0  0  0  0  0  0  0  0
   -4.0728   -0.9462   -0.3748 O   0  0  0  0  0  0  0  0  0  0  0  0
  1  3  1  0  0  0  0
  1  8  1  0  0  0  0
  2  1  1  0  0  0  0
  4  5  1  0  0  0  0
  4 14  1  0  0  0  0
  4  1  1  0  0  0  0
  6  4  1  0  0  0  0
  8 10  1  0  0  0  0
  9  8  1  0  0  0  0
 11  8  1  0  0  0  0
 11 13  1  0  0  0  0
 12 11  1  0  0  0  0
 14 11  1  0  0  0  0
M  END
$$$$
Title Card Required
 OpenBabel06272217483D

 14 13  0  0  0  0  0  0  0  0999 V2000
   -1.7561   -0.5890    0.0415 C   0  0  0  0  0  0  0  0  0  0  0  0
   -0.6995   -0.2684   -0.4684 H   0  0  0  0  0  0  0  0  0  0  0  0
   -1.5249   -1.3757    0.7061 H   0  0  0  0  0  0  0  0  0  0  0  0
   -2.8059   -1.1257   -1.0652 C   0  0  0  0  0  0  0  0  0  0  0  0
   -2.7703   -2.1755   -0.7195 H   0  0  0  0  0  0  0  0  0  0  0  0
   -2.5840   -0.9657   -2.1008 H   0  0  0  0  0  0  0  0  0  0  0  0
    2.7646    0.3249    0.0722 Br  0  0  0  0  0 15  0  0  0  0  0  0
   -2.5436    0.5787    0.7779 C   0  0  0  0  0  0  0  0  0  0  0  0
   -2.0514    1.5549    0.4432 H   0  0  0  0  0  0  0  0  0  0  0  0
   -2.5029    0.3151    1.8626 H   0  0  0  0  0  0  0  0  0  0  0  0
   -3.9224    0.3768    0.2548 C   0  0  0  0  0  0  0  0  0  0  0  0
   -4.3141    1.1652   -0.3452 H   0  0  0  0  0  0  0  0  0  0  0  0
   -4.5845    0.2614    1.0950 H   0  0  0  0  0  0  0  0  0  0  0  0
   -4.0416   -0.9397   -0.3928 O   0  0  0  0  0  0  0  0  0  0  0  0
  1  3  1  0  0  0  0
  1  8  1  0  0  0  0
  2  1  1  0  0  0  0
  4  5  1  0  0  0  0
  4 14  1  0  0  0  0
  4  1  1  0  0  0  0
  6  4  1  0  0  0  0
  8 10  1  0  0  0  0
  9  8  1  0  0  0  0
 11  8  1  0  0  0  0
 11 13  1  0  0  0  0
 12 11  1  0  0  0  0
 14 11  1  0  0  0  0
M  END
$$$$
Title Card Required
 OpenBabel06272217483D

 14 13  0  0  0  0  0  0  0  0999 V2000
   -1.7472   -0.5878    0.0425 C   0  0  0  0  0  0  0  0  0  0  0  0
   -0.7369   -0.3327   -0.4599 H   0  0  0  0  0  0  0  0  0  0  0  0
   -1.5658   -1.3480    0.6992 H   0  0  0  0  0  0  0  0  0  0  0  0
   -2.8326   -1.1401   -1.0465 C   0  0  0  0  0  0  0  0  0  0  0  0
   -2.7876   -2.1916   -0.7955 H   0  0  0  0  0  0  0  0  0  0  0  0
   -2.6122   -0.9398   -2.0757 H   0  0  0  0  0  0  0  0  0  0  0  0
    2.7624    0.3254    0.0719 Br  0  0  0  0  0 15  0  0  0  0  0  0
   -2.5493    0.5842    0.7826 C   0  0  0  0  0  0  0  0  0  0  0  0
   -2.0978    1.5278    0.4231 H   0  0  0  0  0  0  0  0  0  0  0  0
   -2.4515    0.2755    1.8612 H   0  0  0  0  0  0  0  0  0  0  0  0
   -3.9171    0.3730    0.2650 C   0  0  0  0  0  0  0  0  0  0  0  0
   -4.2542    1.1809   -0.3495 H   0  0  0  0  0  0  0  0  0  0  0  0
   -4.6111    0.2964    1.0635 H   0  0  0  0  0  0  0  0  0  0  0  0
   -4.0117   -0.9310   -0.4105 O   0  0  0  0  0  0  0  0  0  0  0  0
  1  3  1  0  0  0  0
  1  8  1  0  0  0  0
  2  1  1  0  0  0  0
  4  5  1  0  0  0  0
  4 14  1  0  0  0  0
  4  1  1  0  0  0  0
  6  4  1  0  0  0  0
  8 10  1  0  0  0  0
  9  8  1  0  0  0  0
 11  8  1  0  0  0  0
 11 13  1  0  0  0  0
 12 11  1  0  0  0  0
 14 11  1  0  0  0  0
M  END
$$$$
Title Card Required
 OpenBabel06272217483D

 14 13  0  0  0  0  0  0  0  0999 V2000
   -1.7387   -0.5844    0.0399 C   0  0  0  0  0  0  0  0  0  0  0  0
   -0.7866   -0.3955   -0.4417 H   0  0  0  0  0  0  0  0  0  0  0  0
   -1.6009   -1.3434    0.7123 H   0  0  0  0  0  0  0  0  0  0  0  0
   -2.8561   -1.1559   -1.0247 C   0  0  0  0  0  0  0  0  0  0  0  0
   -2.7955   -2.2186   -0.8850 H   0  0  0  0  0  0  0  0  0  0  0  0
   -2.6447   -0.9062   -2.0615 H   0  0  0  0  0  0  0  0  0  0  0  0
    2.7602    0.3260    0.0716 Br  0  0  0  0  0 15  0  0  0  0  0  0
   -2.5528    0.5879    0.7867 C   0  0  0  0  0  0  0  0  0  0  0  0
   -2.1451    1.5008    0.4125 H   0  0  0  0  0  0  0  0  0  0  0  0
   -2.4014    0.2491    1.8524 H   0  0  0  0  0  0  0  0  0  0  0  0
   -3.9130    0.3677    0.2747 C   0  0  0  0  0  0  0  0  0  0  0  0
   -4.1979    1.2033   -0.3643 H   0  0  0  0  0  0  0  0  0  0  0  0
   -4.6482    0.3305    1.0425 H   0  0  0  0  0  0  0  0  0  0  0  0
   -3.9836   -0.9202   -0.4274 O   0  0  0  0  0  0  0  0  0  0  0  0
  1  3  1  0  0  0  0
  1  8  1  0  0  0  0
  2  1  1  0  0  0  0
  4  5  1  0  0  0  0
  4 14  1  0  0  0  0
  4  1  1  0  0  0  0
  6  4  1  0  0  0  0
  8 10  1  0  0  0  0
  9  8  1  0  0  0  0
 11  8  1  0  0  0  0
 11 13  1  0  0  0  0
 12 11  1  0  0  0  0
 14 11  1  0  0  0  0
M  END
$$$$
Title Card Required
 OpenBabel06272217483D

 14 13  0  0  0  0  0  0  0  0999 V2000
   -1.7321   -0.5795    0.0346 C   0  0  0  0  0  0  0  0  0  0  0  0
   -0.8311   -0.4523   -0.4224 H   0  0  0  0  0  0  0  0  0  0  0  0
   -1.6313   -1.3610    0.7458 H   0  0  0  0  0  0  0  0  0  0  0  0
   -2.8752   -1.1732   -1.0013 C   0  0  0  0  0  0  0  0  0  0  0  0
   -2.7952   -2.2589   -0.9857 H   0  0  0  0  0  0  0  0  0  0  0  0
   -2.6820   -0.8643   -2.0535 H   0  0  0  0  0  0  0  0  0  0  0  0
    2.7580    0.3265    0.0713 Br  0  0  0  0  0 15  0  0  0  0  0  0
   -2.5541    0.5888    0.7908 C   0  0  0  0  0  0  0  0  0  0  0  0
   -2.1885    1.4850    0.4082 H   0  0  0  0  0  0  0  0  0  0  0  0
   -2.3531    0.2371    1.8364 H   0  0  0  0  0  0  0  0  0  0  0  0
   -3.9100    0.3616    0.2835 C   0  0  0  0  0  0  0  0  0  0  0  0
   -4.1425    1.2273   -0.3863 H   0  0  0  0  0  0  0  0  0  0  0  0
   -4.6959    0.3631    1.0301 H   0  0  0  0  0  0  0  0  0  0  0  0
   -3.9582   -0.9068   -0.4432 O   0  0  0  0  0  0  0  0  0  0  0  0
  1  3  1  0  0  0  0
  1  8  1  0  0  0  0
  2  1  1  0  0  0  0
  4  5  1  0  0  0  0
  4 14  1  0  0  0  0
  4  1  1  0  0  0  0
  6  4  1  0  0  0  0
  8 10  1  0  0  0  0
  9  8  1  0  0  0  0
 11  8  1  0  0  0  0
 11 13  1  0  0  0  0
 12 11  1  0  0  0  0
 14 11  1  0  0  0  0
M  END
$$$$
Title Card Required
 OpenBabel06272217483D

 14 13  0  0  0  0  0  0  0  0999 V2000
   -1.7296   -0.5748    0.0283 C   0  0  0  0  0  0  0  0  0  0  0  0
   -0.8435   -0.4993   -0.4150 H   0  0  0  0  0  0  0  0  0  0  0  0
   -1.6597   -1.3912    0.7921 H   0  0  0  0  0  0  0  0  0  0  0  0
   -2.8875   -1.1932   -0.9774 C   0  0  0  0  0  0  0  0  0  0  0  0
   -2.7885   -2.3094   -1.0988 H   0  0  0  0  0  0  0  0  0  0  0  0
   -2.7254   -0.8135   -2.0448 H   0  0  0  0  0  0  0  0  0  0  0  0
    2.7555    0.3271    0.0709 Br  0  0  0  0  0 15  0  0  0  0  0  0
   -2.5530    0.5857    0.7953 C   0  0  0  0  0  0  0  0  0  0  0  0
   -2.2237    1.4923    0.4072 H   0  0  0  0  0  0  0  0  0  0  0  0
   -2.3059    0.2415    1.8144 H   0  0  0  0  0  0  0  0  0  0  0  0
   -3.9085    0.3548    0.2915 C   0  0  0  0  0  0  0  0  0  0  0  0
   -4.0849    1.2458   -0.4114 H   0  0  0  0  0  0  0  0  0  0  0  0
   -4.7515    0.3940    1.0205 H   0  0  0  0  0  0  0  0  0  0  0  0
   -3.9368   -0.8898   -0.4573 O   0  0  0  0  0  0  0  0  0  0  0  0
  1  3  1  0  0  0  0
  1  8  1  0  0  0  0
  2  1  1  0  0  0  0
  4 14  1  0  0  0  0
  4  1  1  0  0  0  0
  5  4  1  0  0  0  0
  6  4  1  0  0  0  0
  8 10  1  0  0  0  0
  9  8  1  0  0  0  0
 11  8  1  0  0  0  0
 11 13  1  0  0  0  0
 12 11  1  0  0  0  0
 14 11  1  0  0  0  0
M  END
$$$$
Title Card Required
 OpenBabel06272217483D

 14 13  0  0  0  0  0  0  0  0999 V2000
   -1.7338   -0.5727    0.0232 C   0  0  0  0  0  0  0  0  0  0  0  0
   -0.8005   -0.5323   -0.4294 H   0  0  0  0  0  0  0  0  0  0  0  0
   -1.6859   -1.4177    0.8364 H   0  0  0  0  0  0  0  0  0  0  0  0
   -2.8882   -1.2171   -0.9562 C   0  0  0  0  0  0  0  0  0  0  0  0
   -2.7784   -2.3572   -1.2178 H   0  0  0  0  0  0  0  0  0  0  0  0
   -2.7725   -0.7565   -2.0279 H   0  0  0  0  0  0  0  0  0  0  0  0
    2.7529    0.3277    0.0705 Br  0  0  0  0  0 15  0  0  0  0  0  0
   -2.5486    0.5779    0.7998 C   0  0  0  0  0  0  0  0  0  0  0  0
   -2.2472    1.5285    0.4106 H   0  0  0  0  0  0  0  0  0  0  0  0
   -2.2611    0.2648    1.7924 H   0  0  0  0  0  0  0  0  0  0  0  0
   -3.9094    0.3482    0.2980 C   0  0  0  0  0  0  0  0  0  0  0  0
   -4.0261    1.2493   -0.4338 H   0  0  0  0  0  0  0  0  0  0  0  0
   -4.8056    0.4210    1.0054 H   0  0  0  0  0  0  0  0  0  0  0  0
   -3.9229   -0.8683   -0.4676 O   0  0  0  0  0  0  0  0  0  0  0  0
  1  8  1  0  0  0  0
  1  3  1  0  0  0  0
  2  1  1  0  0  0  0
  4 14  1  0  0  0  0
  4  1  1  0  0  0  0
  5  4  1  0  0  0  0
  6  4  1  0  0  0  0
  8 10  1  0  0  0  0
  9  8  1  0  0  0  0
 11  8  1  0  0  0  0
 11 13  1  0  0  0  0
 12 11  1  0  0  0  0
 14 11  1  0  0  0  0
M  END
$$$$
Title Card Required
 OpenBabel06272217483D

 14 13  0  0  0  0  0  0  0  0999 V2000
   -1.7431   -0.5752    0.0201 C   0  0  0  0  0  0  0  0  0  0  0  0
   -0.7202   -0.5506   -0.4550 H   0  0  0  0  0  0  0  0  0  0  0  0
   -1.7072   -1.4250    0.8628 H   0  0  0  0  0  0  0  0  0  0  0  0
   -2.8737   -1.2445   -0.9419 C   0  0  0  0  0  0  0  0  0  0  0  0
   -2.7698   -2.3841   -1.3269 H   0  0  0  0  0  0  0  0  0  0  0  0
   -2.8153   -0.7011   -1.9976 H   0  0  0  0  0  0  0  0  0  0  0  0
    2.7500    0.3284    0.0701 Br  0  0  0  0  0 15  0  0  0  0  0  0
   -2.5402    0.5667    0.8028 C   0  0  0  0  0  0  0  0  0  0  0  0
   -2.2601    1.5811    0.4246 H   0  0  0  0  0  0  0  0  0  0  0  0
   -2.2207    0.3053    1.7830 H   0  0  0  0  0  0  0  0  0  0  0  0
   -3.9134    0.3427    0.3025 C   0  0  0  0  0  0  0  0  0  0  0  0
   -3.9717    1.2306   -0.4473 H   0  0  0  0  0  0  0  0  0  0  0  0
   -4.8450    0.4403    0.9777 H   0  0  0  0  0  0  0  0  0  0  0  0
   -3.9204   -0.8426   -0.4724 O   0  0  0  0  0  0  0  0  0  0  0  0
  1  8  1  0  0  0  0
  1  3  1  0  0  0  0
  2  1  1  0  0  0  0
  4 14  1  0  0  0  0
  4  1  1  0  0  0  0
  5  4  1  0  0  0  0
  6  4  1  0  0  0  0
  8 10  1  0  0  0  0
  9  8  1  0  0  0  0
 11  8  1  0  0  0  0
 11 13  1  0  0  0  0
 12 11  1  0  0  0  0
 14 11  1  0  0  0  0
M  END
$$$$
Title Card Required
 OpenBabel06272217483D

 14 13  0  0  0  0  0  0  0  0999 V2000
   -1.7536   -0.5833    0.0181 C   0  0  0  0  0  0  0  0  0  0  0  0
   -0.6495   -0.5554   -0.4692 H   0  0  0  0  0  0  0  0  0  0  0  0
   -1.7201   -1.4068    0.8634 H   0  0  0  0  0  0  0  0  0  0  0  0
   -2.8451   -1.2732   -0.9362 C   0  0  0  0  0  0  0  0  0  0  0  0
   -2.7659   -2.3786   -1.4086 H   0  0  0  0  0  0  0  0  0  0  0  0
   -2.8433   -0.6567   -1.9539 H   0  0  0  0  0  0  0  0  0  0  0  0
    2.7471    0.3291    0.0697 Br  0  0  0  0  0 15  0  0  0  0  0  0
   -2.5275    0.5548    0.8028 C   0  0  0  0  0  0  0  0  0  0  0  0
   -2.2659    1.6251    0.4553 H   0  0  0  0  0  0  0  0  0  0  0  0
   -2.1859    0.3575    1.7967 H   0  0  0  0  0  0  0  0  0  0  0  0
   -3.9201    0.3391    0.3045 C   0  0  0  0  0  0  0  0  0  0  0  0
   -3.9284    1.1916   -0.4496 H   0  0  0  0  0  0  0  0  0  0  0  0
   -4.8614    0.4500    0.9365 H   0  0  0  0  0  0  0  0  0  0  0  0
   -3.9296   -0.8149   -0.4714 O   0  0  0  0  0  0  0  0  0  0  0  0
  1  8  1  0  0  0  0
  1  3  1  0  0  0  0
  2  1  1  0  0  0  0
  4 14  1  0  0  0  0
  4  1  1  0  0  0  0
  5  4  1  0  0  0  0
  6  4  1  0  0  0  0
  8 10  1  0  0  0  0
  9  8  1  0  0  0  0
 11  8  1  0  0  0  0
 11 13  1  0  0  0  0
 12 11  1  0  0  0  0
 14 11  1  0  0  0  0
M  END
$$$$
Title Card Required
 OpenBabel06272217483D

 14 13  0  0  0  0  0  0  0  0999 V2000
   -1.7617   -0.5963    0.0166 C   0  0  0  0  0  0  0  0  0  0  0  0
   -0.6193   -0.5490   -0.4599 H   0  0  0  0  0  0  0  0  0  0  0  0
   -1.7228   -1.3688    0.8423 H   0  0  0  0  0  0  0  0  0  0  0  0
   -2.8089   -1.2986   -0.9382 C   0  0  0  0  0  0  0  0  0  0  0  0
   -2.7671   -2.3433   -1.4533 H   0  0  0  0  0  0  0  0  0  0  0  0
   -2.8484   -0.6302   -1.9025 H   0  0  0  0  0  0  0  0  0  0  0  0
    2.7442    0.3297    0.0693 Br  0  0  0  0  0 15  0  0  0  0  0  0
   -2.5117    0.5444    0.8002 C   0  0  0  0  0  0  0  0  0  0  0  0
   -2.2673    1.6428    0.5003 H   0  0  0  0  0  0  0  0  0  0  0  0
   -2.1596    0.4147    1.8287 H   0  0  0  0  0  0  0  0  0  0  0  0
   -3.9279    0.3373    0.3040 C   0  0  0  0  0  0  0  0  0  0  0  0
   -3.9011    1.1456   -0.4449 H   0  0  0  0  0  0  0  0  0  0  0  0
   -4.8582    0.4512    0.8900 H   0  0  0  0  0  0  0  0  0  0  0  0
   -3.9473   -0.7887   -0.4661 O   0  0  0  0  0  0  0  0  0  0  0  0
  1  8  1  0  0  0  0
  1  3  1  0  0  0  0
  2  1  1  0  0  0  0
  4 14  1  0  0  0  0
  4  1  1  0  0  0  0
  5  4  1  0  0  0  0
  6  4  1  0  0  0  0
  8 10  1  0  0  0  0
  9  8  1  0  0  0  0
 11  8  1  0  0  0  0
 11 13  1  0  0  0  0
 12 11  1  0  0  0  0
 14 11  1  0  0  0  0
M  END
$$$$
Title Card Required
 OpenBabel06272217483D

 14 13  0  0  0  0  0  0  0  0999 V2000
   -1.7663   -0.6127    0.0150 C   0  0  0  0  0  0  0  0  0  0  0  0
   -0.6342   -0.5344   -0.4279 H   0  0  0  0  0  0  0  0  0  0  0  0
   -1.7145   -1.3252    0.8137 H   0  0  0  0  0  0  0  0  0  0  0  0
   -2.7704   -1.3178   -0.9455 C   0  0  0  0  0  0  0  0  0  0  0  0
   -2.7716   -2.2924   -1.4645 H   0  0  0  0  0  0  0  0  0  0  0  0
   -2.8285   -0.6221   -1.8501 H   0  0  0  0  0  0  0  0  0  0  0  0
    2.7413    0.3303    0.0688 Br  0  0  0  0  0 15  0  0  0  0  0  0
   -2.4935    0.5361    0.7964 C   0  0  0  0  0  0  0  0  0  0  0  0
   -2.2649    1.6323    0.5523 H   0  0  0  0  0  0  0  0  0  0  0  0
   -2.1447    0.4716    1.8646 H   0  0  0  0  0  0  0  0  0  0  0  0
   -3.9347    0.3372    0.3015 C   0  0  0  0  0  0  0  0  0  0  0  0
   -3.8895    1.1099   -0.4416 H   0  0  0  0  0  0  0  0  0  0  0  0
   -4.8478    0.4476    0.8497 H   0  0  0  0  0  0  0  0  0  0  0  0
   -3.9702   -0.7664   -0.4588 O   0  0  0  0  0  0  0  0  0  0  0  0
  1  8  1  0  0  0  0
  1  3  1  0  0  0  0
  2  1  1  0  0  0  0
  4 14  1  0  0  0  0
  4  1  1  0  0  0  0
  5  4  1  0  0  0  0
  6  4  1  0  0  0  0
  8 10  1  0  0  0  0
  9  8  1  0  0  0  0
 11  8  1  0  0  0  0
 11 13  1  0  0  0  0
 12 11  1  0  0  0  0
 14 11  1  0  0  0  0
M  END
$$$$
Title Card Required
 OpenBabel06272217483D

 14 13  0  0  0  0  0  0  0  0999 V2000
   -1.7675   -0.6311    0.0126 C   0  0  0  0  0  0  0  0  0  0  0  0
   -0.6885   -0.5132   -0.3777 H   0  0  0  0  0  0  0  0  0  0  0  0
   -1.6944   -1.2944    0.7970 H   0  0  0  0  0  0  0  0  0  0  0  0
   -2.7317   -1.3288   -0.9555 C   0  0  0  0  0  0  0  0  0  0  0  0
   -2.7778   -2.2479   -1.4527 H   0  0  0  0  0  0  0  0  0  0  0  0
   -2.7842   -0.6280   -1.8035 H   0  0  0  0  0  0  0  0  0  0  0  0
    2.7384    0.3309    0.0684 Br  0  0  0  0  0 15  0  0  0  0  0  0
   -2.4734    0.5293    0.7929 C   0  0  0  0  0  0  0  0  0  0  0  0
   -2.2570    1.5996    0.6038 H   0  0  0  0  0  0  0  0  0  0  0  0
   -2.1430    0.5240    1.8921 H   0  0  0  0  0  0  0  0  0  0  0  0
   -3.9391    0.3387    0.2977 C   0  0  0  0  0  0  0  0  0  0  0  0
   -3.8919    1.0985   -0.4469 H   0  0  0  0  0  0  0  0  0  0  0  0
   -4.8443    0.4433    0.8262 H   0  0  0  0  0  0  0  0  0  0  0  0
   -3.9967   -0.7493   -0.4507 O   0  0  0  0  0  0  0  0  0  0  0  0
  1  8  1  0  0  0  0
  1  3  1  0  0  0  0
  2  1  1  0  0  0  0
  4 14  1  0  0  0  0
  4  1  1  0  0  0  0
  5  4  1  0  0  0  0
  6  4  1  0  0  0  0
  8 10  1  0  0  0  0
  9  8  1  0  0  0  0
 11  8  1  0  0  0  0
 11 13  1  0  0  0  0
 12 11  1  0  0  0  0
 14 11  1  0  0  0  0
M  END
$$$$
Title Card Required
 OpenBabel06272217483D

 14 13  0  0  0  0  0  0  0  0999 V2000
   -1.7660   -0.6501    0.0092 C   0  0  0  0  0  0  0  0  0  0  0  0
   -0.7653   -0.4855   -0.3186 H   0  0  0  0  0  0  0  0  0  0  0  0
   -1.6610   -1.2941    0.8114 H   0  0  0  0  0  0  0  0  0  0  0  0
   -2.6945   -1.3294   -0.9657 C   0  0  0  0  0  0  0  0  0  0  0  0
   -2.7854   -2.2387   -1.4312 H   0  0  0  0  0  0  0  0  0  0  0  0
   -2.7177   -0.6394   -1.7741 H   0  0  0  0  0  0  0  0  0  0  0  0
    2.7354    0.3315    0.0679 Br  0  0  0  0  0 15  0  0  0  0  0  0
   -2.4523    0.5230    0.7908 C   0  0  0  0  0  0  0  0  0  0  0  0
   -2.2401    1.5591    0.6449 H   0  0  0  0  0  0  0  0  0  0  0  0
   -2.1554    0.5653    1.9034 H   0  0  0  0  0  0  0  0  0  0  0  0
   -3.9398    0.3424    0.2926 C   0  0  0  0  0  0  0  0  0  0  0  0
   -3.9071    1.1190   -0.4627 H   0  0  0  0  0  0  0  0  0  0  0  0
   -4.8561    0.4414    0.8277 H   0  0  0  0  0  0  0  0  0  0  0  0
   -4.0258   -0.7385   -0.4432 O   0  0  0  0  0  0  0  0  0  0  0  0
  1  8  1  0  0  0  0
  1  3  1  0  0  0  0
  2  1  1  0  0  0  0
  4 14  1  0  0  0  0
  4  1  1  0  0  0  0
  5  4  1  0  0  0  0
  6  4  1  0  0  0  0
  8 10  1  0  0  0  0
  9  8  1  0  0  0  0
 11  8  1  0  0  0  0
 11 13  1  0  0  0  0
 12 11  1  0  0  0  0
 14 11  1  0  0  0  0
M  END
$$$$
Title Card Required
 OpenBabel06272217483D

 14 13  0  0  0  0  0  0  0  0999 V2000
   -1.7643   -0.6691    0.0073 C   0  0  0  0  0  0  0  0  0  0  0  0
   -0.8241   -0.4486   -0.2695 H   0  0  0  0  0  0  0  0  0  0  0  0
   -1.6171   -1.3247    0.8547 H   0  0  0  0  0  0  0  0  0  0  0  0
   -2.6613   -1.3197   -0.9739 C   0  0  0  0  0  0  0  0  0  0  0  0
   -2.7938   -2.2775   -1.4070 H   0  0  0  0  0  0  0  0  0  0  0  0
   -2.6361   -0.6448   -1.7757 H   0  0  0  0  0  0  0  0  0  0  0  0
    2.7324    0.3321    0.0675 Br  0  0  0  0  0 15  0  0  0  0  0  0
   -2.4322    0.5160    0.7907 C   0  0  0  0  0  0  0  0  0  0  0  0
   -2.2100    1.5323    0.6644 H   0  0  0  0  0  0  0  0  0  0  0  0
   -2.1804    0.5874    1.8974 H   0  0  0  0  0  0  0  0  0  0  0  0
   -3.9369    0.3495    0.2867 C   0  0  0  0  0  0  0  0  0  0  0  0
   -3.9332    1.1659   -0.4814 H   0  0  0  0  0  0  0  0  0  0  0  0
   -4.8768    0.4434    0.8529 H   0  0  0  0  0  0  0  0  0  0  0  0
   -4.0553   -0.7350   -0.4373 O   0  0  0  0  0  0  0  0  0  0  0  0
  1  8  1  0  0  0  0
  1  3  1  0  0  0  0
  2  1  1  0  0  0  0
  4 14  1  0  0  0  0
  4  1  1  0  0  0  0
  5  4  1  0  0  0  0
  6  4  1  0  0  0  0
  8 10  1  0  0  0  0
  9  8  1  0  0  0  0
 11  8  1  0  0  0  0
 11 13  1  0  0  0  0
 12 11  1  0  0  0  0
 14 11  1  0  0  0  0
M  END
$$$$
Title Card Required
 OpenBabel06272217483D

 14 13  0  0  0  0  0  0  0  0999 V2000
   -1.7645   -0.6887    0.0104 C   0  0  0  0  0  0  0  0  0  0  0  0
   -0.8267   -0.3987   -0.2460 H   0  0  0  0  0  0  0  0  0  0  0  0
   -1.5698   -1.3682    0.9021 H   0  0  0  0  0  0  0  0  0  0  0  0
   -2.6341   -1.3034   -0.9802 C   0  0  0  0  0  0  0  0  0  0  0  0
   -2.7995   -2.3396   -1.3737 H   0  0  0  0  0  0  0  0  0  0  0  0
   -2.5490   -0.6397   -1.8111 H   0  0  0  0  0  0  0  0  0  0  0  0
    2.7294    0.3327    0.0670 Br  0  0  0  0  0 15  0  0  0  0  0  0
   -2.4150    0.5076    0.7921 C   0  0  0  0  0  0  0  0  0  0  0  0
   -2.1655    1.5308    0.6576 H   0  0  0  0  0  0  0  0  0  0  0  0
   -2.2131    0.5870    1.8812 H   0  0  0  0  0  0  0  0  0  0  0  0
   -3.9320    0.3607    0.2804 C   0  0  0  0  0  0  0  0  0  0  0  0
   -3.9668    1.2227   -0.4916 H   0  0  0  0  0  0  0  0  0  0  0  0
   -4.8896    0.4490    0.8911 H   0  0  0  0  0  0  0  0  0  0  0  0
   -4.0831   -0.7381   -0.4337 O   0  0  0  0  0  0  0  0  0  0  0  0
  1  8  1  0  0  0  0
  1  3  1  0  0  0  0
  2  1  1  0  0  0  0
  4 14  1  0  0  0  0
  4  1  1  0  0  0  0
  5  4  1  0  0  0  0
  6  4  1  0  0  0  0
  8 10  1  0  0  0  0
  9  8  1  0  0  0  0
 11  8  1  0  0  0  0
 11 13  1  0  0  0  0
 12 11  1  0  0  0  0
 14 11  1  0  0  0  0
M  END
$$$$
Title Card Required
 OpenBabel06272217483D

 14 13  0  0  0  0  0  0  0  0999 V2000
   -1.7651   -0.7090    0.0200 C   0  0  0  0  0  0  0  0  0  0  0  0
   -0.7840   -0.3414   -0.2454 H   0  0  0  0  0  0  0  0  0  0  0  0
   -1.5260   -1.4082    0.9322 H   0  0  0  0  0  0  0  0  0  0  0  0
   -2.6136   -1.2845   -0.9862 C   0  0  0  0  0  0  0  0  0  0  0  0
   -2.7982   -2.3920   -1.3257 H   0  0  0  0  0  0  0  0  0  0  0  0
   -2.4645   -0.6319   -1.8666 H   0  0  0  0  0  0  0  0  0  0  0  0
    2.7266    0.3332    0.0666 Br  0  0  0  0  0 15  0  0  0  0  0  0
   -2.4016    0.4986    0.7938 C   0  0  0  0  0  0  0  0  0  0  0  0
   -2.1107    1.5448    0.6281 H   0  0  0  0  0  0  0  0  0  0  0  0
   -2.2486    0.5661    1.8659 H   0  0  0  0  0  0  0  0  0  0  0  0
   -3.9269    0.3756    0.2739 C   0  0  0  0  0  0  0  0  0  0  0  0
   -4.0036    1.2745   -0.4868 H   0  0  0  0  0  0  0  0  0  0  0  0
   -4.8826    0.4567    0.9310 H   0  0  0  0  0  0  0  0  0  0  0  0
   -4.1080   -0.7457   -0.4322 O   0  0  0  0  0  0  0  0  0  0  0  0
  1  8  1  0  0  0  0
  1  3  1  0  0  0  0
  2  1  1  0  0  0  0
  4 14  1  0  0  0  0
  4  1  1  0  0  0  0
  5  4  1  0  0  0  0
  6  4  1  0  0  0  0
  8 10  1  0  0  0  0
  9  8  1  0  0  0  0
 11  8  1  0  0  0  0
 11 13  1  0  0  0  0
 12 11  1  0  0  0  0
 14 11  1  0  0  0  0
M  END
$$$$
Title Card Required
 OpenBabel06272217483D

 14 13  0  0  0  0  0  0  0  0999 V2000
   -1.7629   -0.7292    0.0359 C   0  0  0  0  0  0  0  0  0  0  0  0
   -0.7308   -0.2880   -0.2559 H   0  0  0  0  0  0  0  0  0  0  0  0
   -1.4882   -1.4396    0.9380 H   0  0  0  0  0  0  0  0  0  0  0  0
   -2.5990   -1.2646   -0.9936 C   0  0  0  0  0  0  0  0  0  0  0  0
   -2.7875   -2.4176   -1.2620 H   0  0  0  0  0  0  0  0  0  0  0  0
   -2.3855   -0.6314   -1.9260 H   0  0  0  0  0  0  0  0  0  0  0  0
    2.7237    0.3337    0.0662 Br  0  0  0  0  0 15  0  0  0  0  0  0
   -2.3914    0.4900    0.7946 C   0  0  0  0  0  0  0  0  0  0  0  0
   -2.0498    1.5562    0.5826 H   0  0  0  0  0  0  0  0  0  0  0  0
   -2.2850    0.5285    1.8598 H   0  0  0  0  0  0  0  0  0  0  0  0
   -3.9221    0.3938    0.2670 C   0  0  0  0  0  0  0  0  0  0  0  0
   -4.0414    1.3148   -0.4659 H   0  0  0  0  0  0  0  0  0  0  0  0
   -4.8518    0.4661    0.9682 H   0  0  0  0  0  0  0  0  0  0  0  0
   -4.1303   -0.7566   -0.4322 O   0  0  0  0  0  0  0  0  0  0  0  0
  1  8  1  0  0  0  0
  1  3  1  0  0  0  0
  2  1  1  0  0  0  0
  4 14  1  0  0  0  0
  4  1  1  0  0  0  0
  5  4  1  0  0  0  0
  6  4  1  0  0  0  0
  8 10  1  0  0  0  0
  9  8  1  0  0  0  0
 11  8  1  0  0  0  0
 11 13  1  0  0  0  0
 12 11  1  0  0  0  0
 14 11  1  0  0  0  0
M  END
$$$$
Title Card Required
 OpenBabel06272217483D

 14 13  0  0  0  0  0  0  0  0999 V2000
   -1.7556   -0.7485    0.0572 C   0  0  0  0  0  0  0  0  0  0  0  0
   -0.6930   -0.2503   -0.2681 H   0  0  0  0  0  0  0  0  0  0  0  0
   -1.4580   -1.4617    0.9186 H   0  0  0  0  0  0  0  0  0  0  0  0
   -2.5896   -1.2444   -1.0033 C   0  0  0  0  0  0  0  0  0  0  0  0
   -2.7667   -2.4093   -1.1862 H   0  0  0  0  0  0  0  0  0  0  0  0
   -2.3165   -0.6448   -1.9759 H   0  0  0  0  0  0  0  0  0  0  0  0
    2.7208    0.3343    0.0658 Br  0  0  0  0  0 15  0  0  0  0  0  0
   -2.3841    0.4827    0.7936 C   0  0  0  0  0  0  0  0  0  0  0  0
   -1.9878    1.5504    0.5288 H   0  0  0  0  0  0  0  0  0  0  0  0
   -2.3206    0.4786    1.8669 H   0  0  0  0  0  0  0  0  0  0  0  0
   -3.9182    0.4146    0.2599 C   0  0  0  0  0  0  0  0  0  0  0  0
   -4.0778    1.3401   -0.4306 H   0  0  0  0  0  0  0  0  0  0  0  0
   -4.7975    0.4767    1.0007 H   0  0  0  0  0  0  0  0  0  0  0  0
   -4.1499   -0.7693   -0.4337 O   0  0  0  0  0  0  0  0  0  0  0  0
  1  8  1  0  0  0  0
  1  3  1  0  0  0  0
  2  1  1  0  0  0  0
  4 14  1  0  0  0  0
  4  1  1  0  0  0  0
  5  4  1  0  0  0  0
  6  4  1  0  0  0  0
  8 10  1  0  0  0  0
  9  8  1  0  0  0  0
 11  8  1  0  0  0  0
 11 13  1  0  0  0  0
 12 11  1  0  0  0  0
 14 11  1  0  0  0  0
M  END
$$$$
Title Card Required
 OpenBabel06272217483D

 14 13  0  0  0  0  0  0  0  0999 V2000
   -1.7431   -0.7654    0.0819 C   0  0  0  0  0  0  0  0  0  0  0  0
   -0.6816   -0.2354   -0.2765 H   0  0  0  0  0  0  0  0  0  0  0  0
   -1.4359   -1.4771    0.8802 H   0  0  0  0  0  0  0  0  0  0  0  0
   -2.5848   -1.2248   -1.0147 C   0  0  0  0  0  0  0  0  0  0  0  0
   -2.7378   -2.3692   -1.1065 H   0  0  0  0  0  0  0  0  0  0  0  0
   -2.2629   -0.6733   -2.0072 H   0  0  0  0  0  0  0  0  0  0  0  0
    2.7180    0.3348    0.0653 Br  0  0  0  0  0 15  0  0  0  0  0  0
   -2.3792    0.4772    0.7905 C   0  0  0  0  0  0  0  0  0  0  0  0
   -1.9307    1.5201    0.4760 H   0  0  0  0  0  0  0  0  0  0  0  0
   -2.3541    0.4222    1.8834 H   0  0  0  0  0  0  0  0  0  0  0  0
   -3.9149    0.4365    0.2528 C   0  0  0  0  0  0  0  0  0  0  0  0
   -4.1104    1.3510   -0.3868 H   0  0  0  0  0  0  0  0  0  0  0  0
   -4.7261    0.4877    1.0288 H   0  0  0  0  0  0  0  0  0  0  0  0
   -4.1662   -0.7827   -0.4362 O   0  0  0  0  0  0  0  0  0  0  0  0
  1  8  1  0  0  0  0
  1  3  1  0  0  0  0
  2  1  1  0  0  0  0
  4 14  1  0  0  0  0
  4  1  1  0  0  0  0
  5  4  1  0  0  0  0
  6  4  1  0  0  0  0
  8 10  1  0  0  0  0
  9  8  1  0  0  0  0
 11  8  1  0  0  0  0
 11 13  1  0  0  0  0
 12 11  1  0  0  0  0
 14 11  1  0  0  0  0
M  END
$$$$
Title Card Required
 OpenBabel06272217483D

 14 13  0  0  0  0  0  0  0  0999 V2000
   -1.7266   -0.7788    0.1076 C   0  0  0  0  0  0  0  0  0  0  0  0
   -0.6965   -0.2448   -0.2780 H   0  0  0  0  0  0  0  0  0  0  0  0
   -1.4191   -1.4935    0.8349 H   0  0  0  0  0  0  0  0  0  0  0  0
   -2.5836   -1.2060   -1.0267 C   0  0  0  0  0  0  0  0  0  0  0  0
   -2.7042   -2.3076   -1.0300 H   0  0  0  0  0  0  0  0  0  0  0  0
   -2.2268   -0.7142   -2.0184 H   0  0  0  0  0  0  0  0  0  0  0  0
    2.7152    0.3353    0.0649 Br  0  0  0  0  0 15  0  0  0  0  0  0
   -2.3764    0.4731    0.7859 C   0  0  0  0  0  0  0  0  0  0  0  0
   -1.8816    1.4662    0.4305 H   0  0  0  0  0  0  0  0  0  0  0  0
   -2.3845    0.3651    1.9002 H   0  0  0  0  0  0  0  0  0  0  0  0
   -3.9118    0.4579    0.2458 C   0  0  0  0  0  0  0  0  0  0  0  0
   -4.1388    1.3532   -0.3426 H   0  0  0  0  0  0  0  0  0  0  0  0
   -4.6465    0.4983    1.0564 H   0  0  0  0  0  0  0  0  0  0  0  0
   -4.1789   -0.7956   -0.4397 O   0  0  0  0  0  0  0  0  0  0  0  0
  1  8  1  0  0  0  0
  1  3  1  0  0  0  0
  2  1  1  0  0  0  0
  4 14  1  0  0  0  0
  4  1  1  0  0  0  0
  5  4  1  0  0  0  0
  6  4  1  0  0  0  0
  8 10  1  0  0  0  0
  9  8  1  0  0  0  0
 11  8  1  0  0  0  0
 11 13  1  0  0  0  0
 12 11  1  0  0  0  0
 14 11  1  0  0  0  0
M  END
$$$$
Title Card Required
 OpenBabel06272217483D

 14 13  0  0  0  0  0  0  0  0999 V2000
   -1.7069   -0.7882    0.1328 C   0  0  0  0  0  0  0  0  0  0  0  0
   -0.7340   -0.2775   -0.2716 H   0  0  0  0  0  0  0  0  0  0  0  0
   -1.4030   -1.5228    0.7958 H   0  0  0  0  0  0  0  0  0  0  0  0
   -2.5850   -1.1868   -1.0382 C   0  0  0  0  0  0  0  0  0  0  0  0
   -2.6691   -2.2399   -0.9606 H   0  0  0  0  0  0  0  0  0  0  0  0
   -2.2074   -0.7641   -2.0132 H   0  0  0  0  0  0  0  0  0  0  0  0
    2.7123    0.3357    0.0645 Br  0  0  0  0  0 15  0  0  0  0  0  0
   -2.3753    0.4696    0.7803 C   0  0  0  0  0  0  0  0  0  0  0  0
   -1.8401    1.3922    0.3952 H   0  0  0  0  0  0  0  0  0  0  0  0
   -2.4120    0.3113    1.9087 H   0  0  0  0  0  0  0  0  0  0  0  0
   -3.9079    0.4780    0.2391 C   0  0  0  0  0  0  0  0  0  0  0  0
   -4.1648    1.3562   -0.3058 H   0  0  0  0  0  0  0  0  0  0  0  0
   -4.5655    0.5079    1.0896 H   0  0  0  0  0  0  0  0  0  0  0  0
   -4.1884   -0.8078   -0.4440 O   0  0  0  0  0  0  0  0  0  0  0  0
  1  8  1  0  0  0  0
  1  3  1  0  0  0  0
  2  1  1  0  0  0  0
  4  5  1  0  0  0  0
  4 14  1  0  0  0  0
  4  1  1  0  0  0  0
  6  4  1  0  0  0  0
  8 10  1  0  0  0  0
  9  8  1  0  0  0  0
 11  8  1  0  0  0  0
 11 13  1  0  0  0  0
 12 11  1  0  0  0  0
 14 11  1  0  0  0  0
M  END
$$$$
Title Card Required
 OpenBabel06272217483D

 14 13  0  0  0  0  0  0  0  0999 V2000
   -1.6851   -0.7928    0.1563 C   0  0  0  0  0  0  0  0  0  0  0  0
   -0.7861   -0.3315   -0.2580 H   0  0  0  0  0  0  0  0  0  0  0  0
   -1.3837   -1.5773    0.7737 H   0  0  0  0  0  0  0  0  0  0  0  0
   -2.5890   -1.1658   -1.0478 C   0  0  0  0  0  0  0  0  0  0  0  0
   -2.6356   -2.1867   -0.8998 H   0  0  0  0  0  0  0  0  0  0  0  0
   -2.2035   -0.8184   -1.9993 H   0  0  0  0  0  0  0  0  0  0  0  0
    2.7092    0.3363    0.0640 Br  0  0  0  0  0 15  0  0  0  0  0  0
   -2.3760    0.4655    0.7743 C   0  0  0  0  0  0  0  0  0  0  0  0
   -1.8032    1.3050    0.3714 H   0  0  0  0  0  0  0  0  0  0  0  0
   -2.4361    0.2650    1.9017 H   0  0  0  0  0  0  0  0  0  0  0  0
   -3.9025    0.4958    0.2328 C   0  0  0  0  0  0  0  0  0  0  0  0
   -4.1916    1.3704   -0.2843 H   0  0  0  0  0  0  0  0  0  0  0  0
   -4.4876    0.5158    1.1346 H   0  0  0  0  0  0  0  0  0  0  0  0
   -4.1945   -0.8190   -0.4494 O   0  0  0  0  0  0  0  0  0  0  0  0
  1  3  1  0  0  0  0
  1  8  1  0  0  0  0
  2  1  1  0  0  0  0
  4  5  1  0  0  0  0
  4 14  1  0  0  0  0
  4  1  1  0  0  0  0
  6  4  1  0  0  0  0
  8 10  1  0  0  0  0
  9  8  1  0  0  0  0
 11  8  1  0  0  0  0
 11 13  1  0  0  0  0
 12 11  1  0  0  0  0
 14 11  1  0  0  0  0
M  END
$$$$
Title Card Required
 OpenBabel06272217483D

 14 13  0  0  0  0  0  0  0  0999 V2000
   -1.6630   -0.7933    0.1785 C   0  0  0  0  0  0  0  0  0  0  0  0
   -0.8298   -0.3985   -0.2442 H   0  0  0  0  0  0  0  0  0  0  0  0
   -1.3627   -1.6594    0.7704 H   0  0  0  0  0  0  0  0  0  0  0  0
   -2.5961   -1.1421   -1.0530 C   0  0  0  0  0  0  0  0  0  0  0  0
   -2.6063   -2.1682   -0.8491 H   0  0  0  0  0  0  0  0  0  0  0  0
   -2.2125   -0.8696   -1.9927 H   0  0  0  0  0  0  0  0  0  0  0  0
    2.7058    0.3368    0.0635 Br  0  0  0  0  0 15  0  0  0  0  0  0
   -2.3791    0.4589    0.7681 C   0  0  0  0  0  0  0  0  0  0  0  0
   -1.7636    1.2177    0.3586 H   0  0  0  0  0  0  0  0  0  0  0  0
   -2.4553    0.2322    1.8744 H   0  0  0  0  0  0  0  0  0  0  0  0
   -3.8945    0.5106    0.2273 C   0  0  0  0  0  0  0  0  0  0  0  0
   -4.2213    1.4020   -0.2838 H   0  0  0  0  0  0  0  0  0  0  0  0
   -4.4151    0.5210    1.1926 H   0  0  0  0  0  0  0  0  0  0  0  0
   -4.1964   -0.8286   -0.4562 O   0  0  0  0  0  0  0  0  0  0  0  0
  1  8  1  0  0  0  0
  1  3  1  0  0  0  0
  2  1  1  0  0  0  0
  4  5  1  0  0  0  0
  4 14  1  0  0  0  0
  4  1  1  0  0  0  0
  6  4  1  0  0  0  0
  8 10  1  0  0  0  0
  9  8  1  0  0  0  0
 11  8  1  0  0  0  0
 11 13  1  0  0  0  0
 12 11  1  0  0  0  0
 14 11  1  0  0  0  0
M  END
$$$$
Title Card Required
 OpenBabel06272217483D

 14 13  0  0  0  0  0  0  0  0999 V2000
   -1.6439   -0.7927    0.2014 C   0  0  0  0  0  0  0  0  0  0  0  0
   -0.8125   -0.4592   -0.2503 H   0  0  0  0  0  0  0  0  0  0  0  0
   -1.3499   -1.7530    0.7755 H   0  0  0  0  0  0  0  0  0  0  0  0
   -2.6083   -1.1162   -1.0495 C   0  0  0  0  0  0  0  0  0  0  0  0
   -2.5842   -2.1883   -0.8146 H   0  0  0  0  0  0  0  0  0  0  0  0
   -2.2320   -0.9079   -2.0180 H   0  0  0  0  0  0  0  0  0  0  0  0
    2.7018    0.3375    0.0629 Br  0  0  0  0  0 15  0  0  0  0  0  0
   -2.3856    0.4469    0.7617 C   0  0  0  0  0  0  0  0  0  0  0  0
   -1.7089    1.1514    0.3555 H   0  0  0  0  0  0  0  0  0  0  0  0
   -2.4672    0.2212    1.8270 H   0  0  0  0  0  0  0  0  0  0  0  0
   -3.8837    0.5219    0.2232 C   0  0  0  0  0  0  0  0  0  0  0  0
   -4.2513    1.4447   -0.3033 H   0  0  0  0  0  0  0  0  0  0  0  0
   -4.3476    0.5227    1.2543 H   0  0  0  0  0  0  0  0  0  0  0  0
   -4.1921   -0.8357   -0.4652 O   0  0  0  0  0  0  0  0  0  0  0  0
  1  8  1  0  0  0  0
  1  3  1  0  0  0  0
  2  1  1  0  0  0  0
  4  5  1  0  0  0  0
  4 14  1  0  0  0  0
  4  1  1  0  0  0  0
  6  4  1  0  0  0  0
  8 10  1  0  0  0  0
  9  8  1  0  0  0  0
 11  8  1  0  0  0  0
 11 13  1  0  0  0  0
 12 11  1  0  0  0  0
 14 11  1  0  0  0  0
M  END
$$$$
Title Card Required
 OpenBabel06272217483D

 14 13  0  0  0  0  0  0  0  0999 V2000
   -1.6318   -0.7948    0.2233 C   0  0  0  0  0  0  0  0  0  0  0  0
   -0.7068   -0.4981   -0.2841 H   0  0  0  0  0  0  0  0  0  0  0  0
   -1.3609   -1.8134    0.7740 H   0  0  0  0  0  0  0  0  0  0  0  0
   -2.6257   -1.0948   -1.0345 C   0  0  0  0  0  0  0  0  0  0  0  0
   -2.5762   -2.2181   -0.8139 H   0  0  0  0  0  0  0  0  0  0  0  0
   -2.2656   -0.9235   -2.0756 H   0  0  0  0  0  0  0  0  0  0  0  0
    2.6974    0.3382    0.0623 Br  0  0  0  0  0 15  0  0  0  0  0  0
   -2.3942    0.4298    0.7542 C   0  0  0  0  0  0  0  0  0  0  0  0
   -1.6431    1.1282    0.3662 H   0  0  0  0  0  0  0  0  0  0  0  0
   -2.4687    0.2389    1.7868 H   0  0  0  0  0  0  0  0  0  0  0  0
   -3.8720    0.5286    0.2218 C   0  0  0  0  0  0  0  0  0  0  0  0
   -4.2668    1.4695   -0.3283 H   0  0  0  0  0  0  0  0  0  0  0  0
   -4.2944    0.5209    1.2893 H   0  0  0  0  0  0  0  0  0  0  0  0
   -4.1795   -0.8378   -0.4760 O   0  0  0  0  0  0  0  0  0  0  0  0
  1  8  1  0  0  0  0
  1  3  1  0  0  0  0
  2  1  1  0  0  0  0
  4  5  1  0  0  0  0
  4 14  1  0  0  0  0
  4  1  1  0  0  0  0
  6  4  1  0  0  0  0
  8 10  1  0  0  0  0
  9  8  1  0  0  0  0
 11  8  1  0  0  0  0
 11 13  1  0  0  0  0
 12 11  1  0  0  0  0
 14 11  1  0  0  0  0
M  END
$$$$
Title Card Required
 OpenBabel06272217483D

 14 13  0  0  0  0  0  0  0  0999 V2000
   -1.6228   -0.8001    0.2388 C   0  0  0  0  0  0  0  0  0  0  0  0
   -0.5825   -0.5337   -0.3066 H   0  0  0  0  0  0  0  0  0  0  0  0
   -1.4018   -1.8146    0.7618 H   0  0  0  0  0  0  0  0  0  0  0  0
   -2.6467   -1.0829   -1.0107 C   0  0  0  0  0  0  0  0  0  0  0  0
   -2.5872   -2.2239   -0.8547 H   0  0  0  0  0  0  0  0  0  0  0  0
   -2.3257   -0.9182   -2.1226 H   0  0  0  0  0  0  0  0  0  0  0  0
    2.6928    0.3389    0.0616 Br  0  0  0  0  0 15  0  0  0  0  0  0
   -2.4010    0.4112    0.7431 C   0  0  0  0  0  0  0  0  0  0  0  0
   -1.5934    1.1371    0.3995 H   0  0  0  0  0  0  0  0  0  0  0  0
   -2.4616    0.2809    1.7908 H   0  0  0  0  0  0  0  0  0  0  0  0
   -3.8612    0.5307    0.2234 C   0  0  0  0  0  0  0  0  0  0  0  0
   -4.2558    1.4534   -0.3434 H   0  0  0  0  0  0  0  0  0  0  0  0
   -4.2660    0.5174    1.2785 H   0  0  0  0  0  0  0  0  0  0  0  0
   -4.1579   -0.8336   -0.4880 O   0  0  0  0  0  0  0  0  0  0  0  0
  1  8  1  0  0  0  0
  1  3  1  0  0  0  0
  2  1  1  0  0  0  0
  4  5  1  0  0  0  0
  4 14  1  0  0  0  0
  4  1  1  0  0  0  0
  6  4  1  0  0  0  0
  8 10  1  0  0  0  0
  9  8  1  0  0  0  0
 11  8  1  0  0  0  0
 11 13  1  0  0  0  0
 12 11  1  0  0  0  0
 14 11  1  0  0  0  0
M  END
$$$$
Title Card Required
 OpenBabel06272217483D

 14 13  0  0  0  0  0  0  0  0999 V2000
   -1.6141   -0.8062    0.2434 C   0  0  0  0  0  0  0  0  0  0  0  0
   -0.5135   -0.5728   -0.2904 H   0  0  0  0  0  0  0  0  0  0  0  0
   -1.4588   -1.7729    0.7503 H   0  0  0  0  0  0  0  0  0  0  0  0
   -2.6671   -1.0812   -0.9864 C   0  0  0  0  0  0  0  0  0  0  0  0
   -2.6128   -2.2032   -0.9199 H   0  0  0  0  0  0  0  0  0  0  0  0
   -2.4036   -0.8971   -2.1224 H   0  0  0  0  0  0  0  0  0  0  0  0
    2.6887    0.3395    0.0610 Br  0  0  0  0  0 15  0  0  0  0  0  0
   -2.4023    0.3964    0.7315 C   0  0  0  0  0  0  0  0  0  0  0  0
   -1.5843    1.1552    0.4490 H   0  0  0  0  0  0  0  0  0  0  0  0
   -2.4501    0.3346    1.8283 H   0  0  0  0  0  0  0  0  0  0  0  0
   -3.8524    0.5283    0.2263 C   0  0  0  0  0  0  0  0  0  0  0  0
   -4.2235    1.4078   -0.3468 H   0  0  0  0  0  0  0  0  0  0  0  0
   -4.2703    0.5136    1.2366 H   0  0  0  0  0  0  0  0  0  0  0  0
   -4.1315   -0.8246   -0.4990 O   0  0  0  0  0  0  0  0  0  0  0  0
  1  8  1  0  0  0  0
  1  3  1  0  0  0  0
  2  1  1  0  0  0  0
  4  5  1  0  0  0  0
  4 14  1  0  0  0  0
  4  1  1  0  0  0  0
  6  4  1  0  0  0  0
  8 10  1  0  0  0  0
  9  8  1  0  0  0  0
 11  8  1  0  0  0  0
 11 13  1  0  0  0  0
 12 11  1  0  0  0  0
 14 11  1  0  0  0  0
M  END
$$$$
Title Card Required
 OpenBabel06272217483D

 14 13  0  0  0  0  0  0  0  0999 V2000
   -1.6063   -0.8113    0.2397 C   0  0  0  0  0  0  0  0  0  0  0  0
   -0.4980   -0.6108   -0.2471 H   0  0  0  0  0  0  0  0  0  0  0  0
   -1.5179   -1.7268    0.7514 H   0  0  0  0  0  0  0  0  0  0  0  0
   -2.6857   -1.0856   -0.9649 C   0  0  0  0  0  0  0  0  0  0  0  0
   -2.6446   -2.1762   -0.9899 H   0  0  0  0  0  0  0  0  0  0  0  0
   -2.4841   -0.8657   -2.0846 H   0  0  0  0  0  0  0  0  0  0  0  0
    2.6850    0.3401    0.0605 Br  0  0  0  0  0 15  0  0  0  0  0  0
   -2.3990    0.3860    0.7229 C   0  0  0  0  0  0  0  0  0  0  0  0
   -1.6071    1.1725    0.5005 H   0  0  0  0  0  0  0  0  0  0  0  0
   -2.4370    0.3891    1.8631 H   0  0  0  0  0  0  0  0  0  0  0  0
   -3.8448    0.5220    0.2288 C   0  0  0  0  0  0  0  0  0  0  0  0
   -4.1840    1.3596   -0.3497 H   0  0  0  0  0  0  0  0  0  0  0  0
   -4.3010    0.5093    1.1916 H   0  0  0  0  0  0  0  0  0  0  0  0
   -4.1038   -0.8132   -0.5084 O   0  0  0  0  0  0  0  0  0  0  0  0
  1  8  1  0  0  0  0
  1  3  1  0  0  0  0
  2  1  1  0  0  0  0
  4 14  1  0  0  0  0
  4  1  1  0  0  0  0
  5  4  1  0  0  0  0
  6  4  1  0  0  0  0
  8 10  1  0  0  0  0
  9  8  1  0  0  0  0
 11  8  1  0  0  0  0
 11 13  1  0  0  0  0
 12 11  1  0  0  0  0
 14 11  1  0  0  0  0
M  END
$$$$
Title Card Required
 OpenBabel06272217483D

 14 13  0  0  0  0  0  0  0  0999 V2000
   -1.5997   -0.8143    0.2301 C   0  0  0  0  0  0  0  0  0  0  0  0
   -0.5175   -0.6453   -0.1894 H   0  0  0  0  0  0  0  0  0  0  0  0
   -1.5751   -1.6982    0.7715 H   0  0  0  0  0  0  0  0  0  0  0  0
   -2.7031   -1.0929   -0.9459 C   0  0  0  0  0  0  0  0  0  0  0  0
   -2.6785   -2.1579   -1.0579 H   0  0  0  0  0  0  0  0  0  0  0  0
   -2.5599   -0.8256   -2.0267 H   0  0  0  0  0  0  0  0  0  0  0  0
    2.6817    0.3406    0.0600 Br  0  0  0  0  0 15  0  0  0  0  0  0
   -2.3926    0.3791    0.7182 C   0  0  0  0  0  0  0  0  0  0  0  0
   -1.6482    1.1897    0.5474 H   0  0  0  0  0  0  0  0  0  0  0  0
   -2.4238    0.4391    1.8807 H   0  0  0  0  0  0  0  0  0  0  0  0
   -3.8371    0.5123    0.2307 C   0  0  0  0  0  0  0  0  0  0  0  0
   -4.1452    1.3245   -0.3612 H   0  0  0  0  0  0  0  0  0  0  0  0
   -4.3521    0.5040    1.1564 H   0  0  0  0  0  0  0  0  0  0  0  0
   -4.0757   -0.8004   -0.5163 O   0  0  0  0  0  0  0  0  0  0  0  0
  1  8  1  0  0  0  0
  1  3  1  0  0  0  0
  2  1  1  0  0  0  0
  4 14  1  0  0  0  0
  4  1  1  0  0  0  0
  5  4  1  0  0  0  0
  6  4  1  0  0  0  0
  8 10  1  0  0  0  0
  9  8  1  0  0  0  0
 11  8  1  0  0  0  0
 11 13  1  0  0  0  0
 12 11  1  0  0  0  0
 14 11  1  0  0  0  0
M  END
$$$$
Title Card Required
 OpenBabel06272217483D

 14 13  0  0  0  0  0  0  0  0999 V2000
   -1.5950   -0.8157    0.2167 C   0  0  0  0  0  0  0  0  0  0  0  0
   -0.5556   -0.6747   -0.1272 H   0  0  0  0  0  0  0  0  0  0  0  0
   -1.6300   -1.6900    0.8092 H   0  0  0  0  0  0  0  0  0  0  0  0
   -2.7193   -1.1016   -0.9289 C   0  0  0  0  0  0  0  0  0  0  0  0
   -2.7128   -2.1547   -1.1217 H   0  0  0  0  0  0  0  0  0  0  0  0
   -2.6261   -0.7766   -1.9633 H   0  0  0  0  0  0  0  0  0  0  0  0
    2.6786    0.3410    0.0596 Br  0  0  0  0  0 15  0  0  0  0  0  0
   -2.3844    0.3748    0.7174 C   0  0  0  0  0  0  0  0  0  0  0  0
   -1.6973    1.2100    0.5856 H   0  0  0  0  0  0  0  0  0  0  0  0
   -2.4112    0.4812    1.8798 H   0  0  0  0  0  0  0  0  0  0  0  0
   -3.8289    0.4995    0.2320 C   0  0  0  0  0  0  0  0  0  0  0  0
   -4.1096    1.3077   -0.3845 H   0  0  0  0  0  0  0  0  0  0  0  0
   -4.4172    0.4976    1.1317 H   0  0  0  0  0  0  0  0  0  0  0  0
   -4.0477   -0.7867   -0.5228 O   0  0  0  0  0  0  0  0  0  0  0  0
  1  8  1  0  0  0  0
  1  3  1  0  0  0  0
  2  1  1  0  0  0  0
  4 14  1  0  0  0  0
  4  1  1  0  0  0  0
  5  4  1  0  0  0  0
  6  4  1  0  0  0  0
  8 10  1  0  0  0  0
  9  8  1  0  0  0  0
 11  8  1  0  0  0  0
 11 13  1  0  0  0  0
 12 11  1  0  0  0  0
 14 11  1  0  0  0  0
M  END
$$$$
Title Card Required
 OpenBabel06272217483D

 14 13  0  0  0  0  0  0  0  0999 V2000
   -1.5933   -0.8167    0.2012 C   0  0  0  0  0  0  0  0  0  0  0  0
   -0.5943   -0.6980   -0.0681 H   0  0  0  0  0  0  0  0  0  0  0  0
   -1.6836   -1.6925    0.8577 H   0  0  0  0  0  0  0  0  0  0  0  0
   -2.7345   -1.1116   -0.9132 C   0  0  0  0  0  0  0  0  0  0  0  0
   -2.7473   -2.1651   -1.1817 H   0  0  0  0  0  0  0  0  0  0  0  0
   -2.6801   -0.7170   -1.9046 H   0  0  0  0  0  0  0  0  0  0  0  0
    2.6756    0.3414    0.0591 Br  0  0  0  0  0 15  0  0  0  0  0  0
   -2.3751    0.3726    0.7201 C   0  0  0  0  0  0  0  0  0  0  0  0
   -1.7476    1.2375    0.6134 H   0  0  0  0  0  0  0  0  0  0  0  0
   -2.3996    0.5139    1.8638 H   0  0  0  0  0  0  0  0  0  0  0  0
   -3.8204    0.4842    0.2330 C   0  0  0  0  0  0  0  0  0  0  0  0
   -4.0756    1.3057   -0.4171 H   0  0  0  0  0  0  0  0  0  0  0  0
   -4.4899    0.4905    1.1109 H   0  0  0  0  0  0  0  0  0  0  0  0
   -4.0199   -0.7721   -0.5277 O   0  0  0  0  0  0  0  0  0  0  0  0
  1  8  1  0  0  0  0
  1  3  1  0  0  0  0
  2  1  1  0  0  0  0
  4 14  1  0  0  0  0
  4  1  1  0  0  0  0
  5  4  1  0  0  0  0
  6  4  1  0  0  0  0
  8 10  1  0  0  0  0
  9  8  1  0  0  0  0
 11  8  1  0  0  0  0
 11 13  1  0  0  0  0
 12 11  1  0  0  0  0
 14 11  1  0  0  0  0
M  END
$$$$
Title Card Required
 OpenBabel06272217483D

 14 13  0  0  0  0  0  0  0  0999 V2000
   -1.5965   -0.8185    0.1849 C   0  0  0  0  0  0  0  0  0  0  0  0
   -0.6134   -0.7143   -0.0176 H   0  0  0  0  0  0  0  0  0  0  0  0
   -1.7361   -1.6942    0.9090 H   0  0  0  0  0  0  0  0  0  0  0  0
   -2.7487   -1.1234   -0.8982 C   0  0  0  0  0  0  0  0  0  0  0  0
   -2.7824   -2.1836   -1.2385 H   0  0  0  0  0  0  0  0  0  0  0  0
   -2.7199   -0.6441   -1.8557 H   0  0  0  0  0  0  0  0  0  0  0  0
    2.6726    0.3418    0.0587 Br  0  0  0  0  0 15  0  0  0  0  0  0
   -2.3649    0.3722    0.7260 C   0  0  0  0  0  0  0  0  0  0  0  0
   -1.7962    1.2759    0.6295 H   0  0  0  0  0  0  0  0  0  0  0  0
   -2.3887    0.5362    1.8375 H   0  0  0  0  0  0  0  0  0  0  0  0
   -3.8118    0.4667    0.2339 C   0  0  0  0  0  0  0  0  0  0  0  0
   -4.0399    1.3116   -0.4542 H   0  0  0  0  0  0  0  0  0  0  0  0
   -4.5647    0.4826    1.0863 H   0  0  0  0  0  0  0  0  0  0  0  0
   -3.9919   -0.7564   -0.5311 O   0  0  0  0  0  0  0  0  0  0  0  0
  1  8  1  0  0  0  0
  1  3  1  0  0  0  0
  2  1  1  0  0  0  0
  4 14  1  0  0  0  0
  4  1  1  0  0  0  0
  5  4  1  0  0  0  0
  6  4  1  0  0  0  0
  8 10  1  0  0  0  0
  9  8  1  0  0  0  0
 11  8  1  0  0  0  0
 11 13  1  0  0  0  0
 12 11  1  0  0  0  0
 14 11  1  0  0  0  0
M  END
$$$$
Title Card Required
 OpenBabel06272217483D

 14 13  0  0  0  0  0  0  0  0999 V2000
   -1.6064   -0.8223    0.1692 C   0  0  0  0  0  0  0  0  0  0  0  0
   -0.5966   -0.7234    0.0203 H   0  0  0  0  0  0  0  0  0  0  0  0
   -1.7857   -1.6857    0.9551 H   0  0  0  0  0  0  0  0  0  0  0  0
   -2.7610   -1.1378   -0.8850 C   0  0  0  0  0  0  0  0  0  0  0  0
   -2.8176   -2.2023   -1.2904 H   0  0  0  0  0  0  0  0  0  0  0  0
   -2.7410   -0.5589   -1.8178 H   0  0  0  0  0  0  0  0  0  0  0  0
    2.6694    0.3423    0.0583 Br  0  0  0  0  0 15  0  0  0  0  0  0
   -2.3538    0.3736    0.7347 C   0  0  0  0  0  0  0  0  0  0  0  0
   -1.8418    1.3260    0.6314 H   0  0  0  0  0  0  0  0  0  0  0  0
   -2.3786    0.5460    1.8083 H   0  0  0  0  0  0  0  0  0  0  0  0
   -3.8037    0.4476    0.2345 C   0  0  0  0  0  0  0  0  0  0  0  0
   -3.9999    1.3176   -0.4890 H   0  0  0  0  0  0  0  0  0  0  0  0
   -4.6346    0.4740    1.0512 H   0  0  0  0  0  0  0  0  0  0  0  0
   -3.9643   -0.7394   -0.5323 O   0  0  0  0  0  0  0  0  0  0  0  0
  1  8  1  0  0  0  0
  1  3  1  0  0  0  0
  2  1  1  0  0  0  0
  4 14  1  0  0  0  0
  4  1  1  0  0  0  0
  5  4  1  0  0  0  0
  6  4  1  0  0  0  0
  8 10  1  0  0  0  0
  9  8  1  0  0  0  0
 11  8  1  0  0  0  0
 11 13  1  0  0  0  0
 12 11  1  0  0  0  0
 14 11  1  0  0  0  0
M  END
$$$$
Title Card Required
 OpenBabel06272217483D

 14 13  0  0  0  0  0  0  0  0999 V2000
   -1.6231   -0.8285    0.1549 C   0  0  0  0  0  0  0  0  0  0  0  0
   -0.5479   -0.7274    0.0455 H   0  0  0  0  0  0  0  0  0  0  0  0
   -1.8295   -1.6614    0.9888 H   0  0  0  0  0  0  0  0  0  0  0  0
   -2.7701   -1.1548   -0.8754 C   0  0  0  0  0  0  0  0  0  0  0  0
   -2.8518   -2.2131   -1.3340 H   0  0  0  0  0  0  0  0  0  0  0  0
   -2.7377   -0.4684   -1.7876 H   0  0  0  0  0  0  0  0  0  0  0  0
    2.6661    0.3427    0.0578 Br  0  0  0  0  0 15  0  0  0  0  0  0
   -2.3421    0.3774    0.7454 C   0  0  0  0  0  0  0  0  0  0  0  0
   -1.8844    1.3832    0.6171 H   0  0  0  0  0  0  0  0  0  0  0  0
   -2.3688    0.5417    1.7888 H   0  0  0  0  0  0  0  0  0  0  0  0
   -3.7966    0.4279    0.2345 C   0  0  0  0  0  0  0  0  0  0  0  0
   -3.9542    1.3170   -0.5143 H   0  0  0  0  0  0  0  0  0  0  0  0
   -4.6913    0.4650    1.0014 H   0  0  0  0  0  0  0  0  0  0  0  0
   -3.9383   -0.7213   -0.5306 O   0  0  0  0  0  0  0  0  0  0  0  0
  1  8  1  0  0  0  0
  1  3  1  0  0  0  0
  2  1  1  0  0  0  0
  4 14  1  0  0  0  0
  4  1  1  0  0  0  0
  5  4  1  0  0  0  0
  6  4  1  0  0  0  0
  8 10  1  0  0  0  0
  9  8  1  0  0  0  0
 11  8  1  0  0  0  0
 11 13  1  0  0  0  0
 12 11  1  0  0  0  0
 14 11  1  0  0  0  0
M  END
$$$$
Title Card Required
 OpenBabel06272217483D

 14 13  0  0  0  0  0  0  0  0999 V2000
   -1.6451   -0.8373    0.1430 C   0  0  0  0  0  0  0  0  0  0  0  0
   -0.4916   -0.7304    0.0598 H   0  0  0  0  0  0  0  0  0  0  0  0
   -1.8648   -1.6191    1.0050 H   0  0  0  0  0  0  0  0  0  0  0  0
   -2.7746   -1.1739   -0.8716 C   0  0  0  0  0  0  0  0  0  0  0  0
   -2.8835   -2.2095   -1.3664 H   0  0  0  0  0  0  0  0  0  0  0  0
   -2.7045   -0.3835   -1.7599 H   0  0  0  0  0  0  0  0  0  0  0  0
    2.6625    0.3432    0.0573 Br  0  0  0  0  0 15  0  0  0  0  0  0
   -2.3296    0.3847    0.7571 C   0  0  0  0  0  0  0  0  0  0  0  0
   -1.9259    1.4380    0.5860 H   0  0  0  0  0  0  0  0  0  0  0  0
   -2.3581    0.5226    1.7935 H   0  0  0  0  0  0  0  0  0  0  0  0
   -3.7907    0.4086    0.2339 C   0  0  0  0  0  0  0  0  0  0  0  0
   -3.9026    1.3050   -0.5246 H   0  0  0  0  0  0  0  0  0  0  0  0
   -4.7281    0.4558    0.9352 H   0  0  0  0  0  0  0  0  0  0  0  0
   -3.9150   -0.7024   -0.5255 O   0  0  0  0  0  0  0  0  0  0  0  0
  1  8  1  0  0  0  0
  1  3  1  0  0  0  0
  2  1  1  0  0  0  0
  4 14  1  0  0  0  0
  4  1  1  0  0  0  0
  5  4  1  0  0  0  0
  6  4  1  0  0  0  0
  8 10  1  0  0  0  0
  9  8  1  0  0  0  0
 11  8  1  0  0  0  0
 11 13  1  0  0  0  0
 12 11  1  0  0  0  0
 14 11  1  0  0  0  0
M  END
$$$$
Title Card Required
 OpenBabel06272217483D

 14 13  0  0  0  0  0  0  0  0999 V2000
   -1.6697   -0.8483    0.1343 C   0  0  0  0  0  0  0  0  0  0  0  0
   -0.4576   -0.7365    0.0634 H   0  0  0  0  0  0  0  0  0  0  0  0
   -1.8890   -1.5621    1.0020 H   0  0  0  0  0  0  0  0  0  0  0  0
   -2.7730   -1.1938   -0.8754 C   0  0  0  0  0  0  0  0  0  0  0  0
   -2.9103   -2.1895   -1.3851 H   0  0  0  0  0  0  0  0  0  0  0  0
   -2.6391   -0.3191   -1.7312 H   0  0  0  0  0  0  0  0  0  0  0  0
    2.6588    0.3436    0.0568 Br  0  0  0  0  0 15  0  0  0  0  0  0
   -2.3170    0.3962    0.7686 C   0  0  0  0  0  0  0  0  0  0  0  0
   -1.9662    1.4771    0.5411 H   0  0  0  0  0  0  0  0  0  0  0  0
   -2.3444    0.4888    1.8304 H   0  0  0  0  0  0  0  0  0  0  0  0
   -3.7859    0.3915    0.2326 C   0  0  0  0  0  0  0  0  0  0  0  0
   -3.8469    1.2805   -0.5169 H   0  0  0  0  0  0  0  0  0  0  0  0
   -4.7405    0.4474    0.8566 H   0  0  0  0  0  0  0  0  0  0  0  0
   -3.8963   -0.6840   -0.5170 O   0  0  0  0  0  0  0  0  0  0  0  0
  1  8  1  0  0  0  0
  1  3  1  0  0  0  0
  2  1  1  0  0  0  0
  4 14  1  0  0  0  0
  4  1  1  0  0  0  0
  5  4  1  0  0  0  0
  6  4  1  0  0  0  0
  8 10  1  0  0  0  0
  9  8  1  0  0  0  0
 11  8  1  0  0  0  0
 11 13  1  0  0  0  0
 12 11  1  0  0  0  0
 14 11  1  0  0  0  0
M  END
$$$$
Title Card Required
 OpenBabel06272217483D

 14 13  0  0  0  0  0  0  0  0999 V2000
   -1.6939   -0.8604    0.1294 C   0  0  0  0  0  0  0  0  0  0  0  0
   -0.4658   -0.7484    0.0558 H   0  0  0  0  0  0  0  0  0  0  0  0
   -1.9015   -1.5023    0.9860 H   0  0  0  0  0  0  0  0  0  0  0  0
   -2.7649   -1.2115   -0.8873 C   0  0  0  0  0  0  0  0  0  0  0  0
   -2.9304   -2.1600   -1.3922 H   0  0  0  0  0  0  0  0  0  0  0  0
   -2.5469   -0.2882   -1.7012 H   0  0  0  0  0  0  0  0  0  0  0  0
    2.6548    0.3441    0.0563 Br  0  0  0  0  0 15  0  0  0  0  0  0
   -2.3050    0.4120    0.7798 C   0  0  0  0  0  0  0  0  0  0  0  0
   -2.0026    1.4895    0.4896 H   0  0  0  0  0  0  0  0  0  0  0  0
   -2.3256    0.4426    1.8877 H   0  0  0  0  0  0  0  0  0  0  0  0
   -3.7815    0.3786    0.2313 C   0  0  0  0  0  0  0  0  0  0  0  0
   -3.7913    1.2486   -0.4937 H   0  0  0  0  0  0  0  0  0  0  0  0
   -4.7321    0.4421    0.7775 H   0  0  0  0  0  0  0  0  0  0  0  0
   -3.8833   -0.6685   -0.5061 O   0  0  0  0  0  0  0  0  0  0  0  0
  1  8  1  0  0  0  0
  1  3  1  0  0  0  0
  2  1  1  0  0  0  0
  4 14  1  0  0  0  0
  4  1  1  0  0  0  0
  5  4  1  0  0  0  0
  6  4  1  0  0  0  0
  8 10  1  0  0  0  0
  9  8  1  0  0  0  0
 11 13  1  0  0  0  0
 11  8  1  0  0  0  0
 12 11  1  0  0  0  0
 14 11  1  0  0  0  0
M  END
$$$$
Title Card Required
 OpenBabel06272217483D

 14 13  0  0  0  0  0  0  0  0999 V2000
   -1.7160   -0.8722    0.1280 C   0  0  0  0  0  0  0  0  0  0  0  0
   -0.5228   -0.7676    0.0368 H   0  0  0  0  0  0  0  0  0  0  0  0
   -1.9054   -1.4571    0.9737 H   0  0  0  0  0  0  0  0  0  0  0  0
   -2.7505   -1.2242   -0.9062 C   0  0  0  0  0  0  0  0  0  0  0  0
   -2.9442   -2.1367   -1.3958 H   0  0  0  0  0  0  0  0  0  0  0  0
   -2.4369   -0.2984   -1.6705 H   0  0  0  0  0  0  0  0  0  0  0  0
    2.6507    0.3445    0.0557 Br  0  0  0  0  0 15  0  0  0  0  0  0
   -2.2945    0.4316    0.7917 C   0  0  0  0  0  0  0  0  0  0  0  0
   -2.0305    1.4729    0.4391 H   0  0  0  0  0  0  0  0  0  0  0  0
   -2.2992    0.3880    1.9423 H   0  0  0  0  0  0  0  0  0  0  0  0
   -3.7759    0.3716    0.2306 C   0  0  0  0  0  0  0  0  0  0  0  0
   -3.7383    1.2197   -0.4631 H   0  0  0  0  0  0  0  0  0  0  0  0
   -4.7172    0.4430    0.7131 H   0  0  0  0  0  0  0  0  0  0  0  0
   -3.8757   -0.6580   -0.4945 O   0  0  0  0  0  0  0  0  0  0  0  0
  1  8  1  0  0  0  0
  1  3  1  0  0  0  0
  2  1  1  0  0  0  0
  4 14  1  0  0  0  0
  4  1  1  0  0  0  0
  5  4  1  0  0  0  0
  6  4  1  0  0  0  0
  8 10  1  0  0  0  0
  9  8  1  0  0  0  0
 11 13  1  0  0  0  0
 11  8  1  0  0  0  0
 12 11  1  0  0  0  0
 14 11  1  0  0  0  0
M  END
$$$$
Title Card Required
 OpenBabel06272217483D

 14 13  0  0  0  0  0  0  0  0999 V2000
   -1.7349   -0.8821    0.1293 C   0  0  0  0  0  0  0  0  0  0  0  0
   -0.6203   -0.7935    0.0070 H   0  0  0  0  0  0  0  0  0  0  0  0
   -1.9053   -1.4450    0.9849 H   0  0  0  0  0  0  0  0  0  0  0  0
   -2.7311   -1.2289   -0.9297 C   0  0  0  0  0  0  0  0  0  0  0  0
   -2.9534   -2.1373   -1.4054 H   0  0  0  0  0  0  0  0  0  0  0  0
   -2.3234   -0.3514   -1.6426 H   0  0  0  0  0  0  0  0  0  0  0  0
    2.6466    0.3449    0.0552 Br  0  0  0  0  0 15  0  0  0  0  0  0
   -2.2861    0.4526    0.8050 C   0  0  0  0  0  0  0  0  0  0  0  0
   -2.0429    1.4360    0.3962 H   0  0  0  0  0  0  0  0  0  0  0  0
   -2.2649    0.3340    1.9724 H   0  0  0  0  0  0  0  0  0  0  0  0
   -3.7676    0.3715    0.2316 C   0  0  0  0  0  0  0  0  0  0  0  0
   -3.6914    1.2083   -0.4369 H   0  0  0  0  0  0  0  0  0  0  0  0
   -4.7142    0.4540    0.6795 H   0  0  0  0  0  0  0  0  0  0  0  0
   -3.8730   -0.6549   -0.4845 O   0  0  0  0  0  0  0  0  0  0  0  0
  1  8  1  0  0  0  0
  1  3  1  0  0  0  0
  2  1  1  0  0  0  0
  4 14  1  0  0  0  0
  4  1  1  0  0  0  0
  5  4  1  0  0  0  0
  6  4  1  0  0  0  0
  8 10  1  0  0  0  0
  9  8  1  0  0  0  0
 11 13  1  0  0  0  0
 11  8  1  0  0  0  0
 12 11  1  0  0  0  0
 14 11  1  0  0  0  0
M  END
$$$$
Title Card Required
 OpenBabel06272217483D

 14 13  0  0  0  0  0  0  0  0999 V2000
   -1.7510   -0.8896    0.1330 C   0  0  0  0  0  0  0  0  0  0  0  0
   -0.7243   -0.8221   -0.0317 H   0  0  0  0  0  0  0  0  0  0  0  0
   -1.9039   -1.4678    1.0203 H   0  0  0  0  0  0  0  0  0  0  0  0
   -2.7092   -1.2255   -0.9545 C   0  0  0  0  0  0  0  0  0  0  0  0
   -2.9575   -2.1626   -1.4213 H   0  0  0  0  0  0  0  0  0  0  0  0
   -2.2236   -0.4351   -1.6245 H   0  0  0  0  0  0  0  0  0  0  0  0
    2.6425    0.3453    0.0547 Br  0  0  0  0  0 15  0  0  0  0  0  0
   -2.2807    0.4711    0.8194 C   0  0  0  0  0  0  0  0  0  0  0  0
   -2.0337    1.3986    0.3640 H   0  0  0  0  0  0  0  0  0  0  0  0
   -2.2258    0.2918    1.9694 H   0  0  0  0  0  0  0  0  0  0  0  0
   -3.7565    0.3779    0.2348 C   0  0  0  0  0  0  0  0  0  0  0  0
   -3.6545    1.2222   -0.4247 H   0  0  0  0  0  0  0  0  0  0  0  0
   -4.7282    0.4752    0.6808 H   0  0  0  0  0  0  0  0  0  0  0  0
   -3.8741   -0.6595   -0.4779 O   0  0  0  0  0  0  0  0  0  0  0  0
  1  8  1  0  0  0  0
  1  3  1  0  0  0  0
  2  1  1  0  0  0  0
  4 14  1  0  0  0  0
  4  1  1  0  0  0  0
  5  4  1  0  0  0  0
  6  4  1  0  0  0  0
  8 10  1  0  0  0  0
  9  8  1  0  0  0  0
 11 13  1  0  0  0  0
 11  8  1  0  0  0  0
 12 11  1  0  0  0  0
 14 11  1  0  0  0  0
M  END
$$$$
Title Card Required
 OpenBabel06272217483D

 14 13  0  0  0  0  0  0  0  0999 V2000
   -1.7673   -0.8960    0.1407 C   0  0  0  0  0  0  0  0  0  0  0  0
   -0.7948   -0.8499   -0.0809 H   0  0  0  0  0  0  0  0  0  0  0  0
   -1.9005   -1.5115    1.0623 H   0  0  0  0  0  0  0  0  0  0  0  0
   -2.6865   -1.2172   -0.9792 C   0  0  0  0  0  0  0  0  0  0  0  0
   -2.9541   -2.1978   -1.4364 H   0  0  0  0  0  0  0  0  0  0  0  0
   -2.1404   -0.5322   -1.6243 H   0  0  0  0  0  0  0  0  0  0  0  0
    2.6386    0.3457    0.0542 Br  0  0  0  0  0 15  0  0  0  0  0  0
   -2.2780    0.4852    0.8344 C   0  0  0  0  0  0  0  0  0  0  0  0
   -2.0013    1.3751    0.3395 H   0  0  0  0  0  0  0  0  0  0  0  0
   -2.1835    0.2657    1.9396 H   0  0  0  0  0  0  0  0  0  0  0  0
   -3.7439    0.3898    0.2402 C   0  0  0  0  0  0  0  0  0  0  0  0
   -3.6282    1.2562   -0.4252 H   0  0  0  0  0  0  0  0  0  0  0  0
   -4.7470    0.5043    0.7069 H   0  0  0  0  0  0  0  0  0  0  0  0
   -3.8775   -0.6704   -0.4748 O   0  0  0  0  0  0  0  0  0  0  0  0
  1  8  1  0  0  0  0
  1  3  1  0  0  0  0
  2  1  1  0  0  0  0
  4 14  1  0  0  0  0
  4  1  1  0  0  0  0
  5  4  1  0  0  0  0
  6  4  1  0  0  0  0
  8 10  1  0  0  0  0
  9  8  1  0  0  0  0
 11 13  1  0  0  0  0
 11  8  1  0  0  0  0
 12 11  1  0  0  0  0
 14 11  1  0  0  0  0
M  END
$$$$
Title Card Required
 OpenBabel06272217483D

 14 13  0  0  0  0  0  0  0  0999 V2000
   -1.7859   -0.9025    0.1535 C   0  0  0  0  0  0  0  0  0  0  0  0
   -0.8082   -0.8752   -0.1416 H   0  0  0  0  0  0  0  0  0  0  0  0
   -1.8939   -1.5621    1.0928 H   0  0  0  0  0  0  0  0  0  0  0  0
   -2.6646   -1.2073   -1.0026 C   0  0  0  0  0  0  0  0  0  0  0  0
   -2.9403   -2.2276   -1.4435 H   0  0  0  0  0  0  0  0  0  0  0  0
   -2.0700   -0.6244   -1.6515 H   0  0  0  0  0  0  0  0  0  0  0  0
    2.6348    0.3461    0.0537 Br  0  0  0  0  0 15  0  0  0  0  0  0
   -2.2774    0.4947    0.8490 C   0  0  0  0  0  0  0  0  0  0  0  0
   -1.9467    1.3681    0.3222 H   0  0  0  0  0  0  0  0  0  0  0  0
   -2.1391    0.2563    1.8968 H   0  0  0  0  0  0  0  0  0  0  0  0
   -3.7312    0.4065    0.2471 C   0  0  0  0  0  0  0  0  0  0  0  0
   -3.6137    1.2989   -0.4321 H   0  0  0  0  0  0  0  0  0  0  0  0
   -4.7551    0.5377    0.7464 H   0  0  0  0  0  0  0  0  0  0  0  0
   -3.8825   -0.6856   -0.4748 O   0  0  0  0  0  0  0  0  0  0  0  0
  1  8  1  0  0  0  0
  1  3  1  0  0  0  0
  2  1  1  0  0  0  0
  4 14  1  0  0  0  0
  4  1  1  0  0  0  0
  5  4  1  0  0  0  0
  6  4  1  0  0  0  0
  8 10  1  0  0  0  0
  9  8  1  0  0  0  0
 11 13  1  0  0  0  0
 11  8  1  0  0  0  0
 12 11  1  0  0  0  0
 14 11  1  0  0  0  0
M  END
$$$$
Title Card Required
 OpenBabel06272217483D

 14 13  0  0  0  0  0  0  0  0999 V2000
   -1.8051   -0.9098    0.1709 C   0  0  0  0  0  0  0  0  0  0  0  0
   -0.7799   -0.8974   -0.2054 H   0  0  0  0  0  0  0  0  0  0  0  0
   -1.8847   -1.6101    1.1017 H   0  0  0  0  0  0  0  0  0  0  0  0
   -2.6451   -1.1981   -1.0234 C   0  0  0  0  0  0  0  0  0  0  0  0
   -2.9152   -2.2431   -1.4385 H   0  0  0  0  0  0  0  0  0  0  0  0
   -2.0079   -0.6983   -1.7103 H   0  0  0  0  0  0  0  0  0  0  0  0
    2.6310    0.3464    0.0532 Br  0  0  0  0  0 15  0  0  0  0  0  0
   -2.2785    0.5001    0.8610 C   0  0  0  0  0  0  0  0  0  0  0  0
   -1.8754    1.3698    0.3158 H   0  0  0  0  0  0  0  0  0  0  0  0
   -2.0928    0.2606    1.8607 H   0  0  0  0  0  0  0  0  0  0  0  0
   -3.7193    0.4270    0.2545 C   0  0  0  0  0  0  0  0  0  0  0  0
   -3.6115    1.3386   -0.4390 H   0  0  0  0  0  0  0  0  0  0  0  0
   -4.7427    0.5717    0.7901 H   0  0  0  0  0  0  0  0  0  0  0  0
   -3.8884   -0.7032   -0.4773 O   0  0  0  0  0  0  0  0  0  0  0  0
  1  8  1  0  0  0  0
  1  3  1  0  0  0  0
  2  1  1  0  0  0  0
  4 14  1  0  0  0  0
  4  1  1  0  0  0  0
  5  4  1  0  0  0  0
  6  4  1  0  0  0  0
  8 10  1  0  0  0  0
  9  8  1  0  0  0  0
 11 13  1  0  0  0  0
 11  8  1  0  0  0  0
 12 11  1  0  0  0  0
 14 11  1  0  0  0  0
M  END
$$$$
Title Card Required
 OpenBabel06272217483D

 14 13  0  0  0  0  0  0  0  0999 V2000
   -1.8222   -0.9179    0.1915 C   0  0  0  0  0  0  0  0  0  0  0  0
   -0.7422   -0.9169   -0.2588 H   0  0  0  0  0  0  0  0  0  0  0  0
   -1.8745   -1.6517    1.0868 H   0  0  0  0  0  0  0  0  0  0  0  0
   -2.6278   -1.1904   -1.0416 C   0  0  0  0  0  0  0  0  0  0  0  0
   -2.8796   -2.2427   -1.4207 H   0  0  0  0  0  0  0  0  0  0  0  0
   -1.9550   -0.7534   -1.7959 H   0  0  0  0  0  0  0  0  0  0  0  0
    2.6273    0.3468    0.0527 Br  0  0  0  0  0 15  0  0  0  0  0  0
   -2.2806    0.5028    0.8687 C   0  0  0  0  0  0  0  0  0  0  0  0
   -1.7941    1.3690    0.3247 H   0  0  0  0  0  0  0  0  0  0  0  0
   -2.0437    0.2741    1.8488 H   0  0  0  0  0  0  0  0  0  0  0  0
   -3.7088    0.4507    0.2619 C   0  0  0  0  0  0  0  0  0  0  0  0
   -3.6210    1.3681   -0.4413 H   0  0  0  0  0  0  0  0  0  0  0  0
   -4.7063    0.6041    0.8332 H   0  0  0  0  0  0  0  0  0  0  0  0
   -3.8948   -0.7217   -0.4818 O   0  0  0  0  0  0  0  0  0  0  0  0
  1  8  1  0  0  0  0
  1  3  1  0  0  0  0
  2  1  1  0  0  0  0
  4 14  1  0  0  0  0
  4  1  1  0  0  0  0
  5  4  1  0  0  0  0
  6  4  1  0  0  0  0
  8 10  1  0  0  0  0
  9  8  1  0  0  0  0
 11 13  1  0  0  0  0
 11  8  1  0  0  0  0
 12 11  1  0  0  0  0
 14 11  1  0  0  0  0
M  END
$$$$
Title Card Required
 OpenBabel06272217483D

 14 13  0  0  0  0  0  0  0  0999 V2000
   -1.8348   -0.9269    0.2134 C   0  0  0  0  0  0  0  0  0  0  0  0
   -0.7180   -0.9332   -0.2892 H   0  0  0  0  0  0  0  0  0  0  0  0
   -1.8654   -1.6859    1.0504 H   0  0  0  0  0  0  0  0  0  0  0  0
   -2.6123   -1.1839   -1.0575 C   0  0  0  0  0  0  0  0  0  0  0  0
   -2.8354   -2.2294   -1.3908 H   0  0  0  0  0  0  0  0  0  0  0  0
   -1.9197   -0.7937   -1.8940 H   0  0  0  0  0  0  0  0  0  0  0  0
    2.6234    0.3471    0.0522 Br  0  0  0  0  0 15  0  0  0  0  0  0
   -2.2827    0.5035    0.8711 C   0  0  0  0  0  0  0  0  0  0  0  0
   -1.7105    1.3571    0.3514 H   0  0  0  0  0  0  0  0  0  0  0  0
   -1.9924    0.2949    1.8676 H   0  0  0  0  0  0  0  0  0  0  0  0
   -3.6995    0.4769    0.2686 C   0  0  0  0  0  0  0  0  0  0  0  0
   -3.6407    1.3835   -0.4368 H   0  0  0  0  0  0  0  0  0  0  0  0
   -4.6473    0.6331    0.8739 H   0  0  0  0  0  0  0  0  0  0  0  0
   -3.9015   -0.7401   -0.4880 O   0  0  0  0  0  0  0  0  0  0  0  0
  1  8  1  0  0  0  0
  1  3  1  0  0  0  0
  2  1  1  0  0  0  0
  4 14  1  0  0  0  0
  4  1  1  0  0  0  0
  5  4  1  0  0  0  0
  6  4  1  0  0  0  0
  8 10  1  0  0  0  0
  9  8  1  0  0  0  0
 11  8  1  0  0  0  0
 11 13  1  0  0  0  0
 12 11  1  0  0  0  0
 14 11  1  0  0  0  0
M  END
$$$$
Title Card Required
 OpenBabel06272217483D

 14 13  0  0  0  0  0  0  0  0999 V2000
   -1.8421   -0.9362    0.2347 C   0  0  0  0  0  0  0  0  0  0  0  0
   -0.7174   -0.9454   -0.2890 H   0  0  0  0  0  0  0  0  0  0  0  0
   -1.8596   -1.7161    0.9996 H   0  0  0  0  0  0  0  0  0  0  0  0
   -2.5975   -1.1779   -1.0713 C   0  0  0  0  0  0  0  0  0  0  0  0
   -2.7857   -2.2112   -1.3517 H   0  0  0  0  0  0  0  0  0  0  0  0
   -1.9111   -0.8228   -1.9885 H   0  0  0  0  0  0  0  0  0  0  0  0
    2.6195    0.3474    0.0517 Br  0  0  0  0  0 15  0  0  0  0  0  0
   -2.2837    0.5021    0.8693 C   0  0  0  0  0  0  0  0  0  0  0  0
   -1.6316    1.3292    0.3951 H   0  0  0  0  0  0  0  0  0  0  0  0
   -1.9449    0.3242    1.9067 H   0  0  0  0  0  0  0  0  0  0  0  0
   -3.6912    0.5047    0.2742 C   0  0  0  0  0  0  0  0  0  0  0  0
   -3.6687    1.3848   -0.4262 H   0  0  0  0  0  0  0  0  0  0  0  0
   -4.5726    0.6578    0.9133 H   0  0  0  0  0  0  0  0  0  0  0  0
   -3.9082   -0.7576   -0.4956 O   0  0  0  0  0  0  0  0  0  0  0  0
  1  8  1  0  0  0  0
  1  3  1  0  0  0  0
  2  1  1  0  0  0  0
  4 14  1  0  0  0  0
  4  1  1  0  0  0  0
  5  4  1  0  0  0  0
  6  4  1  0  0  0  0
  8 10  1  0  0  0  0
  9  8  1  0  0  0  0
 11  8  1  0  0  0  0
 11 13  1  0  0  0  0
 12 11  1  0  0  0  0
 14 11  1  0  0  0  0
M  END
$$$$
Title Card Required
 OpenBabel06272217483D

 14 13  0  0  0  0  0  0  0  0999 V2000
   -1.8435   -0.9449    0.2536 C   0  0  0  0  0  0  0  0  0  0  0  0
   -0.7429   -0.9524   -0.2538 H   0  0  0  0  0  0  0  0  0  0  0  0
   -1.8594   -1.7505    0.9456 H   0  0  0  0  0  0  0  0  0  0  0  0
   -2.5831   -1.1714   -1.0831 C   0  0  0  0  0  0  0  0  0  0  0  0
   -2.7336   -2.2003   -1.3069 H   0  0  0  0  0  0  0  0  0  0  0  0
   -1.9350   -0.8421   -2.0662 H   0  0  0  0  0  0  0  0  0  0  0  0
    2.6154    0.3478    0.0512 Br  0  0  0  0  0 15  0  0  0  0  0  0
   -2.2821    0.4983    0.8648 C   0  0  0  0  0  0  0  0  0  0  0  0
   -1.5624    1.2843    0.4520 H   0  0  0  0  0  0  0  0  0  0  0  0
   -1.9101    0.3637    1.9483 H   0  0  0  0  0  0  0  0  0  0  0  0
   -3.6831    0.5332    0.2784 C   0  0  0  0  0  0  0  0  0  0  0  0
   -3.7030    1.3769   -0.4136 H   0  0  0  0  0  0  0  0  0  0  0  0
   -4.4936    0.6780    0.9571 H   0  0  0  0  0  0  0  0  0  0  0  0
   -3.9147   -0.7734   -0.5046 O   0  0  0  0  0  0  0  0  0  0  0  0
  1  8  1  0  0  0  0
  1  3  1  0  0  0  0
  2  1  1  0  0  0  0
  4 14  1  0  0  0  0
  4  1  1  0  0  0  0
  5  4  1  0  0  0  0
  6  4  1  0  0  0  0
  8 10  1  0  0  0  0
  9  8  1  0  0  0  0
 11  8  1  0  0  0  0
 11 13  1  0  0  0  0
 12 11  1  0  0  0  0
 14 11  1  0  0  0  0
M  END
$$$$
Title Card Required
 OpenBabel06272217483D

 14 13  0  0  0  0  0  0  0  0999 V2000
   -1.8391   -0.9516    0.2682 C   0  0  0  0  0  0  0  0  0  0  0  0
   -0.7897   -0.9533   -0.1842 H   0  0  0  0  0  0  0  0  0  0  0  0
   -1.8674   -1.7982    0.9009 H   0  0  0  0  0  0  0  0  0  0  0  0
   -2.5691   -1.1639   -1.0922 C   0  0  0  0  0  0  0  0  0  0  0  0
   -2.6826   -2.2081   -1.2604 H   0  0  0  0  0  0  0  0  0  0  0  0
   -1.9928   -0.8511   -2.1160 H   0  0  0  0  0  0  0  0  0  0  0  0
    2.6112    0.3481    0.0507 Br  0  0  0  0  0 15  0  0  0  0  0  0
   -2.2767    0.4914    0.8595 C   0  0  0  0  0  0  0  0  0  0  0  0
   -1.5062    1.2262    0.5142 H   0  0  0  0  0  0  0  0  0  0  0  0
   -1.8984    0.4122    1.9759 H   0  0  0  0  0  0  0  0  0  0  0  0
   -3.6745    0.5607    0.2808 C   0  0  0  0  0  0  0  0  0  0  0  0
   -3.7415    1.3696   -0.4070 H   0  0  0  0  0  0  0  0  0  0  0  0
   -4.4249    0.6935    1.0127 H   0  0  0  0  0  0  0  0  0  0  0  0
   -3.9206   -0.7869   -0.5148 O   0  0  0  0  0  0  0  0  0  0  0  0
  1  8  1  0  0  0  0
  1  3  1  0  0  0  0
  2  1  1  0  0  0  0
  4 14  1  0  0  0  0
  4  1  1  0  0  0  0
  5  4  1  0  0  0  0
  6  4  1  0  0  0  0
  8 10  1  0  0  0  0
  9  8  1  0  0  0  0
 11  8  1  0  0  0  0
 11 13  1  0  0  0  0
 12 11  1  0  0  0  0
 14 11  1  0  0  0  0
M  END
$$$$
Title Card Required
 OpenBabel06272217483D

 14 13  0  0  0  0  0  0  0  0999 V2000
   -1.8305   -0.9558    0.2779 C   0  0  0  0  0  0  0  0  0  0  0  0
   -0.8382   -0.9476   -0.0909 H   0  0  0  0  0  0  0  0  0  0  0  0
   -1.8854   -1.8584    0.8711 H   0  0  0  0  0  0  0  0  0  0  0  0
   -2.5565   -1.1557   -1.0982 C   0  0  0  0  0  0  0  0  0  0  0  0
   -2.6355   -2.2347   -1.2158 H   0  0  0  0  0  0  0  0  0  0  0  0
   -2.0782   -0.8489   -2.1327 H   0  0  0  0  0  0  0  0  0  0  0  0
    2.6070    0.3485    0.0501 Br  0  0  0  0  0 15  0  0  0  0  0  0
   -2.2674    0.4812    0.8549 C   0  0  0  0  0  0  0  0  0  0  0  0
   -1.4623    1.1648    0.5698 H   0  0  0  0  0  0  0  0  0  0  0  0
   -1.9155    0.4642    1.9812 H   0  0  0  0  0  0  0  0  0  0  0  0
   -3.6651    0.5847    0.2817 C   0  0  0  0  0  0  0  0  0  0  0  0
   -3.7817    1.3736   -0.4145 H   0  0  0  0  0  0  0  0  0  0  0  0
   -4.3755    0.7035    1.0801 H   0  0  0  0  0  0  0  0  0  0  0  0
   -3.9253   -0.7972   -0.5256 O   0  0  0  0  0  0  0  0  0  0  0  0
  1  8  1  0  0  0  0
  1  3  1  0  0  0  0
  2  1  1  0  0  0  0
  4 14  1  0  0  0  0
  4  1  1  0  0  0  0
  5  4  1  0  0  0  0
  6  4  1  0  0  0  0
  8 10  1  0  0  0  0
  9  8  1  0  0  0  0
 11  8  1  0  0  0  0
 11 13  1  0  0  0  0
 12 11  1  0  0  0  0
 14 11  1  0  0  0  0
M  END
$$$$
Title Card Required
 OpenBabel06272217483D

 14 13  0  0  0  0  0  0  0  0999 V2000
   -1.8207   -0.9583    0.2844 C   0  0  0  0  0  0  0  0  0  0  0  0
   -0.8553   -0.9354    0.0112 H   0  0  0  0  0  0  0  0  0  0  0  0
   -1.9142   -1.9200    0.8508 H   0  0  0  0  0  0  0  0  0  0  0  0
   -2.5461   -1.1482   -1.1006 C   0  0  0  0  0  0  0  0  0  0  0  0
   -2.5917   -2.2677   -1.1739 H   0  0  0  0  0  0  0  0  0  0  0  0
   -2.1823   -0.8348   -2.1208 H   0  0  0  0  0  0  0  0  0  0  0  0
    2.6027    0.3488    0.0496 Br  0  0  0  0  0 15  0  0  0  0  0  0
   -2.2546    0.4676    0.8517 C   0  0  0  0  0  0  0  0  0  0  0  0
   -1.4242    1.1094    0.6101 H   0  0  0  0  0  0  0  0  0  0  0  0
   -1.9620    0.5148    1.9658 H   0  0  0  0  0  0  0  0  0  0  0  0
   -3.6554    0.6048    0.2819 C   0  0  0  0  0  0  0  0  0  0  0  0
   -3.8230    1.3914   -0.4362 H   0  0  0  0  0  0  0  0  0  0  0  0
   -4.3402    0.7070    1.1509 H   0  0  0  0  0  0  0  0  0  0  0  0
   -3.9287   -0.8043   -0.5369 O   0  0  0  0  0  0  0  0  0  0  0  0
  1  3  1  0  0  0  0
  1  8  1  0  0  0  0
  2  1  1  0  0  0  0
  4 14  1  0  0  0  0
  4  1  1  0  0  0  0
  5  4  1  0  0  0  0
  6  4  1  0  0  0  0
  8 10  1  0  0  0  0
  9  8  1  0  0  0  0
 11  8  1  0  0  0  0
 11 13  1  0  0  0  0
 12 11  1  0  0  0  0
 14 11  1  0  0  0  0
M  END
$$$$
Title Card Required
 OpenBabel06272217483D

 14 13  0  0  0  0  0  0  0  0999 V2000
   -1.8126   -0.9602    0.2893 C   0  0  0  0  0  0  0  0  0  0  0  0
   -0.8100   -0.9180    0.1103 H   0  0  0  0  0  0  0  0  0  0  0  0
   -1.9528   -1.9668    0.8327 H   0  0  0  0  0  0  0  0  0  0  0  0
   -2.5387   -1.1428   -1.0985 C   0  0  0  0  0  0  0  0  0  0  0  0
   -2.5507   -2.2918   -1.1368 H   0  0  0  0  0  0  0  0  0  0  0  0
   -2.2942   -0.8063   -2.0929 H   0  0  0  0  0  0  0  0  0  0  0  0
    2.5984    0.3491    0.0490 Br  0  0  0  0  0 15  0  0  0  0  0  0
   -2.2396    0.4506    0.8494 C   0  0  0  0  0  0  0  0  0  0  0  0
   -1.3853    1.0670    0.6290 H   0  0  0  0  0  0  0  0  0  0  0  0
   -2.0351    0.5594    1.9378 H   0  0  0  0  0  0  0  0  0  0  0  0
   -3.6461    0.6216    0.2820 C   0  0  0  0  0  0  0  0  0  0  0  0
   -3.8636    1.4163   -0.4637 H   0  0  0  0  0  0  0  0  0  0  0  0
   -4.3102    0.7035    1.2106 H   0  0  0  0  0  0  0  0  0  0  0  0
   -3.9303   -0.8083   -0.5484 O   0  0  0  0  0  0  0  0  0  0  0  0
  1  3  1  0  0  0  0
  1  8  1  0  0  0  0
  2  1  1  0  0  0  0
  4 14  1  0  0  0  0
  4  1  1  0  0  0  0
  5  4  1  0  0  0  0
  6  4  1  0  0  0  0
  8 10  1  0  0  0  0
  9  8  1  0  0  0  0
 11  8  1  0  0  0  0
 11 13  1  0  0  0  0
 12 11  1  0  0  0  0
 14 11  1  0  0  0  0
M  END
$$$$
Title Card Required
 OpenBabel06272217483D

 14 13  0  0  0  0  0  0  0  0999 V2000
   -1.8059   -0.9627    0.2931 C   0  0  0  0  0  0  0  0  0  0  0  0
   -0.7151   -0.8990    0.2043 H   0  0  0  0  0  0  0  0  0  0  0  0
   -1.9976   -1.9866    0.8130 H   0  0  0  0  0  0  0  0  0  0  0  0
   -2.5351   -1.1408   -1.0907 C   0  0  0  0  0  0  0  0  0  0  0  0
   -2.5139   -2.2962   -1.1088 H   0  0  0  0  0  0  0  0  0  0  0  0
   -2.4003   -0.7606   -2.0676 H   0  0  0  0  0  0  0  0  0  0  0  0
    2.5940    0.3495    0.0485 Br  0  0  0  0  0 15  0  0  0  0  0  0
   -2.2235    0.4312    0.8473 C   0  0  0  0  0  0  0  0  0  0  0  0
   -1.3453    1.0397    0.6247 H   0  0  0  0  0  0  0  0  0  0  0  0
   -2.1270    0.5943    1.9111 H   0  0  0  0  0  0  0  0  0  0  0  0
   -3.6379    0.6352    0.2818 C   0  0  0  0  0  0  0  0  0  0  0  0
   -3.8992    1.4373   -0.4847 H   0  0  0  0  0  0  0  0  0  0  0  0
   -4.2800    0.6938    1.2460 H   0  0  0  0  0  0  0  0  0  0  0  0
   -3.9300   -0.8091   -0.5597 O   0  0  0  0  0  0  0  0  0  0  0  0
  1  3  1  0  0  0  0
  1  8  1  0  0  0  0
  2  1  1  0  0  0  0
  4 14  1  0  0  0  0
  4  1  1  0  0  0  0
  5  4  1  0  0  0  0
  6  4  1  0  0  0  0
  8 10  1  0  0  0  0
  9  8  1  0  0  0  0
 11  8  1  0  0  0  0
 11 13  1  0  0  0  0
 12 11  1  0  0  0  0
 14 11  1  0  0  0  0
M  END
$$$$
Title Card Required
 OpenBabel06272217483D

 14 13  0  0  0  0  0  0  0  0999 V2000
   -1.7975   -0.9659    0.2958 C   0  0  0  0  0  0  0  0  0  0  0  0
   -0.6126   -0.8840    0.2967 H   0  0  0  0  0  0  0  0  0  0  0  0
   -2.0459   -1.9754    0.7914 H   0  0  0  0  0  0  0  0  0  0  0  0
   -2.5353   -1.1423   -1.0766 C   0  0  0  0  0  0  0  0  0  0  0  0
   -2.4819   -2.2786   -1.0933 H   0  0  0  0  0  0  0  0  0  0  0  0
   -2.4945   -0.6967   -2.0550 H   0  0  0  0  0  0  0  0  0  0  0  0
    2.5896    0.3498    0.0480 Br  0  0  0  0  0 15  0  0  0  0  0  0
   -2.2066    0.4105    0.8440 C   0  0  0  0  0  0  0  0  0  0  0  0
   -1.3090    1.0238    0.6009 H   0  0  0  0  0  0  0  0  0  0  0  0
   -2.2313    0.6188    1.8976 H   0  0  0  0  0  0  0  0  0  0  0  0
   -3.6310    0.6462    0.2810 C   0  0  0  0  0  0  0  0  0  0  0  0
   -3.9265    1.4475   -0.4905 H   0  0  0  0  0  0  0  0  0  0  0  0
   -4.2477    0.6790    1.2519 H   0  0  0  0  0  0  0  0  0  0  0  0
   -3.9276   -0.8070   -0.5705 O   0  0  0  0  0  0  0  0  0  0  0  0
  1  2  1  0  0  0  0
  1  3  1  0  0  0  0
  1  8  1  0  0  0  0
  4 14  1  0  0  0  0
  4  1  1  0  0  0  0
  5  4  1  0  0  0  0
  6  4  1  0  0  0  0
  8 10  1  0  0  0  0
  9  8  1  0  0  0  0
 11  8  1  0  0  0  0
 11 13  1  0  0  0  0
 12 11  1  0  0  0  0
 14 11  1  0  0  0  0
M  END
$$$$
Title Card Required
 OpenBabel06272217483D

 14 13  0  0  0  0  0  0  0  0999 V2000
   -1.7845   -0.9698    0.2981 C   0  0  0  0  0  0  0  0  0  0  0  0
   -0.5375   -0.8788    0.3848 H   0  0  0  0  0  0  0  0  0  0  0  0
   -2.0958   -1.9351    0.7708 H   0  0  0  0  0  0  0  0  0  0  0  0
   -2.5393   -1.1462   -1.0572 C   0  0  0  0  0  0  0  0  0  0  0  0
   -2.4559   -2.2441   -1.0938 H   0  0  0  0  0  0  0  0  0  0  0  0
   -2.5724   -0.6202   -2.0477 H   0  0  0  0  0  0  0  0  0  0  0  0
    2.5850    0.3501    0.0474 Br  0  0  0  0  0 15  0  0  0  0  0  0
   -2.1889    0.3895    0.8390 C   0  0  0  0  0  0  0  0  0  0  0  0
   -1.2852    1.0139    0.5635 H   0  0  0  0  0  0  0  0  0  0  0  0
   -2.3413    0.6318    1.8995 H   0  0  0  0  0  0  0  0  0  0  0  0
   -3.6250    0.6544    0.2789 C   0  0  0  0  0  0  0  0  0  0  0  0
   -3.9429    1.4440   -0.4772 H   0  0  0  0  0  0  0  0  0  0  0  0
   -4.2161    0.6602    1.2285 H   0  0  0  0  0  0  0  0  0  0  0  0
   -3.9231   -0.8018   -0.5806 O   0  0  0  0  0  0  0  0  0  0  0  0
  1  2  1  0  0  0  0
  1  3  1  0  0  0  0
  1  8  1  0  0  0  0
  4 14  1  0  0  0  0
  4  1  1  0  0  0  0
  5  4  1  0  0  0  0
  6  4  1  0  0  0  0
  8 10  1  0  0  0  0
  9  8  1  0  0  0  0
 11  8  1  0  0  0  0
 11 13  1  0  0  0  0
 12 11  1  0  0  0  0
 14 11  1  0  0  0  0
M  END
$$$$
Title Card Required
 OpenBabel06272217483D

 14 13  0  0  0  0  0  0  0  0999 V2000
   -1.7650   -0.9738    0.3003 C   0  0  0  0  0  0  0  0  0  0  0  0
   -0.5093   -0.8887    0.4624 H   0  0  0  0  0  0  0  0  0  0  0  0
   -2.1479   -1.8747    0.7588 H   0  0  0  0  0  0  0  0  0  0  0  0
   -2.5474   -1.1499   -1.0339 C   0  0  0  0  0  0  0  0  0  0  0  0
   -2.4375   -2.2069   -1.1149 H   0  0  0  0  0  0  0  0  0  0  0  0
   -2.6269   -0.5422   -2.0276 H   0  0  0  0  0  0  0  0  0  0  0  0
    2.5800    0.3505    0.0469 Br  0  0  0  0  0 15  0  0  0  0  0  0
   -2.1704    0.3695    0.8326 C   0  0  0  0  0  0  0  0  0  0  0  0
   -1.2825    1.0062    0.5194 H   0  0  0  0  0  0  0  0  0  0  0  0
   -2.4473    0.6290    1.9069 H   0  0  0  0  0  0  0  0  0  0  0  0
   -3.6189    0.6587    0.2744 C   0  0  0  0  0  0  0  0  0  0  0  0
   -3.9470    1.4296   -0.4459 H   0  0  0  0  0  0  0  0  0  0  0  0
   -4.1931    0.6375    1.1830 H   0  0  0  0  0  0  0  0  0  0  0  0
   -3.9164   -0.7935   -0.5896 O   0  0  0  0  0  0  0  0  0  0  0  0
  1  2  1  0  0  0  0
  1  3  1  0  0  0  0
  1  8  1  0  0  0  0
  4 14  1  0  0  0  0
  4  1  1  0  0  0  0
  5  4  1  0  0  0  0
  6  4  1  0  0  0  0
  8 10  1  0  0  0  0
  9  8  1  0  0  0  0
 11  8  1  0  0  0  0
 11 13  1  0  0  0  0
 12 11  1  0  0  0  0
 14 11  1  0  0  0  0
M  END
$$$$
Title Card Required
 OpenBabel06272217483D

 14 13  0  0  0  0  0  0  0  0999 V2000
   -1.7383   -0.9769    0.3028 C   0  0  0  0  0  0  0  0  0  0  0  0
   -0.5386   -0.9183    0.5193 H   0  0  0  0  0  0  0  0  0  0  0  0
   -2.2038   -1.8128    0.7679 H   0  0  0  0  0  0  0  0  0  0  0  0
   -2.5596   -1.1499   -1.0089 C   0  0  0  0  0  0  0  0  0  0  0  0
   -2.4286   -2.1891   -1.1613 H   0  0  0  0  0  0  0  0  0  0  0  0
   -2.6459   -0.4779   -1.9789 H   0  0  0  0  0  0  0  0  0  0  0  0
    2.5746    0.3509    0.0463 Br  0  0  0  0  0 15  0  0  0  0  0  0
   -2.1526    0.3527    0.8258 C   0  0  0  0  0  0  0  0  0  0  0  0
   -1.3057    1.0005    0.4767 H   0  0  0  0  0  0  0  0  0  0  0  0
   -2.5303    0.6043    1.9032 H   0  0  0  0  0  0  0  0  0  0  0  0
   -3.6113    0.6569    0.2658 C   0  0  0  0  0  0  0  0  0  0  0  0
   -3.9394    1.4156   -0.4075 H   0  0  0  0  0  0  0  0  0  0  0  0
   -4.1946    0.6104    1.1337 H   0  0  0  0  0  0  0  0  0  0  0  0
   -3.9073   -0.7817   -0.5964 O   0  0  0  0  0  0  0  0  0  0  0  0
  1  2  1  0  0  0  0
  1  3  1  0  0  0  0
  1  8  1  0  0  0  0
  4 14  1  0  0  0  0
  4  1  1  0  0  0  0
  5  4  1  0  0  0  0
  6  4  1  0  0  0  0
  8 10  1  0  0  0  0
  9  8  1  0  0  0  0
 11  8  1  0  0  0  0
 11 13  1  0  0  0  0
 12 11  1  0  0  0  0
 14 11  1  0  0  0  0
M  END
$$$$
Title Card Required
 OpenBabel06272217483D

 14 13  0  0  0  0  0  0  0  0999 V2000
   -1.7090   -0.9786    0.3055 C   0  0  0  0  0  0  0  0  0  0  0  0
   -0.6101   -0.9649    0.5449 H   0  0  0  0  0  0  0  0  0  0  0  0
   -2.2580   -1.7687    0.8030 H   0  0  0  0  0  0  0  0  0  0  0  0
   -2.5738   -1.1448   -0.9863 C   0  0  0  0  0  0  0  0  0  0  0  0
   -2.4315   -2.1974   -1.2262 H   0  0  0  0  0  0  0  0  0  0  0  0
   -2.6220   -0.4402   -1.9064 H   0  0  0  0  0  0  0  0  0  0  0  0
    2.5694    0.3512    0.0457 Br  0  0  0  0  0 15  0  0  0  0  0  0
   -2.1392    0.3417    0.8200 C   0  0  0  0  0  0  0  0  0  0  0  0
   -1.3457    1.0017    0.4446 H   0  0  0  0  0  0  0  0  0  0  0  0
   -2.5677    0.5599    1.8812 H   0  0  0  0  0  0  0  0  0  0  0  0
   -3.6016    0.6474    0.2538 C   0  0  0  0  0  0  0  0  0  0  0  0
   -3.9252    1.4203   -0.3829 H   0  0  0  0  0  0  0  0  0  0  0  0
   -4.2294    0.5806    1.1024 H   0  0  0  0  0  0  0  0  0  0  0  0
   -3.8975   -0.7678   -0.5999 O   0  0  0  0  0  0  0  0  0  0  0  0
  1  2  1  0  0  0  0
  1  3  1  0  0  0  0
  1  8  1  0  0  0  0
  4 14  1  0  0  0  0
  4  1  1  0  0  0  0
  5  4  1  0  0  0  0
  6  4  1  0  0  0  0
  8 10  1  0  0  0  0
  9  8  1  0  0  0  0
 11  8  1  0  0  0  0
 11 13  1  0  0  0  0
 12 11  1  0  0  0  0
 14 11  1  0  0  0  0
M  END
$$$$
Title Card Required
 OpenBabel06272217483D

 14 13  0  0  0  0  0  0  0  0999 V2000
   -1.6833   -0.9802    0.3086 C   0  0  0  0  0  0  0  0  0  0  0  0
   -0.6811   -1.0215    0.5461 H   0  0  0  0  0  0  0  0  0  0  0  0
   -2.3017   -1.7380    0.8528 H   0  0  0  0  0  0  0  0  0  0  0  0
   -2.5873   -1.1371   -0.9675 C   0  0  0  0  0  0  0  0  0  0  0  0
   -2.4461   -2.2107   -1.2958 H   0  0  0  0  0  0  0  0  0  0  0  0
   -2.5641   -0.4239   -1.8273 H   0  0  0  0  0  0  0  0  0  0  0  0
    2.5645    0.3515    0.0452 Br  0  0  0  0  0 15  0  0  0  0  0  0
   -2.1310    0.3358    0.8154 C   0  0  0  0  0  0  0  0  0  0  0  0
   -1.3872    1.0146    0.4238 H   0  0  0  0  0  0  0  0  0  0  0  0
   -2.5613    0.5056    1.8486 H   0  0  0  0  0  0  0  0  0  0  0  0
   -3.5909    0.6314    0.2407 C   0  0  0  0  0  0  0  0  0  0  0  0
   -3.9079    1.4463   -0.3780 H   0  0  0  0  0  0  0  0  0  0  0  0
   -4.2833    0.5505    1.0843 H   0  0  0  0  0  0  0  0  0  0  0  0
   -3.8880   -0.7531   -0.6002 O   0  0  0  0  0  0  0  0  0  0  0  0
  1  2  1  0  0  0  0
  1  8  1  0  0  0  0
  1  3  1  0  0  0  0
  4 14  1  0  0  0  0
  4  1  1  0  0  0  0
  5  4  1  0  0  0  0
  6  4  1  0  0  0  0
  8 10  1  0  0  0  0
  9  8  1  0  0  0  0
 11  8  1  0  0  0  0
 11 13  1  0  0  0  0
 12 11  1  0  0  0  0
 14 11  1  0  0  0  0
M  END
$$$$
Title Card Required
 OpenBabel06272217483D

 14 13  0  0  0  0  0  0  0  0999 V2000
   -1.6650   -0.9829    0.3120 C   0  0  0  0  0  0  0  0  0  0  0  0
   -0.7080   -1.0889    0.5361 H   0  0  0  0  0  0  0  0  0  0  0  0
   -2.3293   -1.7091    0.9081 H   0  0  0  0  0  0  0  0  0  0  0  0
   -2.5992   -1.1293   -0.9513 C   0  0  0  0  0  0  0  0  0  0  0  0
   -2.4727   -2.2110   -1.3631 H   0  0  0  0  0  0  0  0  0  0  0  0
   -2.4775   -0.4164   -1.7525 H   0  0  0  0  0  0  0  0  0  0  0  0
    2.5598    0.3518    0.0448 Br  0  0  0  0  0 15  0  0  0  0  0  0
   -2.1272    0.3335    0.8110 C   0  0  0  0  0  0  0  0  0  0  0  0
   -1.4238    1.0421    0.4111 H   0  0  0  0  0  0  0  0  0  0  0  0
   -2.5208    0.4464    1.8162 H   0  0  0  0  0  0  0  0  0  0  0  0
   -3.5804    0.6100    0.2269 C   0  0  0  0  0  0  0  0  0  0  0  0
   -3.8844    1.4833   -0.3842 H   0  0  0  0  0  0  0  0  0  0  0  0
   -4.3408    0.5213    1.0641 H   0  0  0  0  0  0  0  0  0  0  0  0
   -3.8787   -0.7372   -0.5977 O   0  0  0  0  0  0  0  0  0  0  0  0
  1  2  1  0  0  0  0
  1  8  1  0  0  0  0
  1  3  1  0  0  0  0
  4 14  1  0  0  0  0
  4  1  1  0  0  0  0
  5  4  1  0  0  0  0
  6  4  1  0  0  0  0
  8 10  1  0  0  0  0
  9  8  1  0  0  0  0
 11  8  1  0  0  0  0
 11 13  1  0  0  0  0
 12 11  1  0  0  0  0
 14 11  1  0  0  0  0
M  END
$$$$
Title Card Required
 OpenBabel06272217483D

 14 13  0  0  0  0  0  0  0  0999 V2000
   -1.6569   -0.9866    0.3156 C   0  0  0  0  0  0  0  0  0  0  0  0
   -0.6700   -1.1656    0.5229 H   0  0  0  0  0  0  0  0  0  0  0  0
   -2.3364   -1.6783    0.9599 H   0  0  0  0  0  0  0  0  0  0  0  0
   -2.6084   -1.1232   -0.9376 C   0  0  0  0  0  0  0  0  0  0  0  0
   -2.5093   -2.1907   -1.4195 H   0  0  0  0  0  0  0  0  0  0  0  0
   -2.3707   -0.4076   -1.6942 H   0  0  0  0  0  0  0  0  0  0  0  0
    2.5553    0.3520    0.0443 Br  0  0  0  0  0 15  0  0  0  0  0  0
   -2.1266    0.3338    0.8057 C   0  0  0  0  0  0  0  0  0  0  0  0
   -1.4523    1.0822    0.4058 H   0  0  0  0  0  0  0  0  0  0  0  0
   -2.4585    0.3896    1.7995 H   0  0  0  0  0  0  0  0  0  0  0  0
   -3.5720    0.5855    0.2132 C   0  0  0  0  0  0  0  0  0  0  0  0
   -3.8522    1.5159   -0.3915 H   0  0  0  0  0  0  0  0  0  0  0  0
   -4.3873    0.4964    1.0334 H   0  0  0  0  0  0  0  0  0  0  0  0
   -3.8700   -0.7204   -0.5932 O   0  0  0  0  0  0  0  0  0  0  0  0
  1  2  1  0  0  0  0
  1  8  1  0  0  0  0
  1  3  1  0  0  0  0
  4 14  1  0  0  0  0
  4  1  1  0  0  0  0
  5  4  1  0  0  0  0
  6  4  1  0  0  0  0
  8 10  1  0  0  0  0
  9  8  1  0  0  0  0
 11  8  1  0  0  0  0
 11 13  1  0  0  0  0
 12 11  1  0  0  0  0
 14 11  1  0  0  0  0
M  END
$$$$
Title Card Required
 OpenBabel06272217483D

 14 13  0  0  0  0  0  0  0  0999 V2000
   -1.6564   -0.9917    0.3199 C   0  0  0  0  0  0  0  0  0  0  0  0
   -0.5984   -1.2438    0.5041 H   0  0  0  0  0  0  0  0  0  0  0  0
   -2.3244   -1.6469    1.0039 H   0  0  0  0  0  0  0  0  0  0  0  0
   -2.6144   -1.1194   -0.9265 C   0  0  0  0  0  0  0  0  0  0  0  0
   -2.5520   -2.1521   -1.4613 H   0  0  0  0  0  0  0  0  0  0  0  0
   -2.2551   -0.3942   -1.6543 H   0  0  0  0  0  0  0  0  0  0  0  0
    2.5511    0.3523    0.0439 Br  0  0  0  0  0 15  0  0  0  0  0  0
   -2.1277    0.3360    0.7989 C   0  0  0  0  0  0  0  0  0  0  0  0
   -1.4742    1.1279    0.4079 H   0  0  0  0  0  0  0  0  0  0  0  0
   -2.3874    0.3403    1.8086 H   0  0  0  0  0  0  0  0  0  0  0  0
   -3.5664    0.5602    0.2001 C   0  0  0  0  0  0  0  0  0  0  0  0
   -3.8120    1.5334   -0.3940 H   0  0  0  0  0  0  0  0  0  0  0  0
   -4.4162    0.4776    0.9926 H   0  0  0  0  0  0  0  0  0  0  0  0
   -3.8622   -0.7034   -0.5872 O   0  0  0  0  0  0  0  0  0  0  0  0
  1  2  1  0  0  0  0
  1  8  1  0  0  0  0
  1  3  1  0  0  0  0
  4 14  1  0  0  0  0
  4  1  1  0  0  0  0
  5  4  1  0  0  0  0
  6  4  1  0  0  0  0
  8 10  1  0  0  0  0
  9  8  1  0  0  0  0
 11  8  1  0  0  0  0
 11 13  1  0  0  0  0
 12 11  1  0  0  0  0
 14 11  1  0  0  0  0
M  END
$$$$
Title Card Required
 OpenBabel06272217483D

 14 13  0  0  0  0  0  0  0  0999 V2000
   -1.6596   -0.9983    0.3253 C   0  0  0  0  0  0  0  0  0  0  0  0
   -0.5296   -1.3161    0.4759 H   0  0  0  0  0  0  0  0  0  0  0  0
   -2.2975   -1.6166    1.0410 H   0  0  0  0  0  0  0  0  0  0  0  0
   -2.6172   -1.1173   -0.9178 C   0  0  0  0  0  0  0  0  0  0  0  0
   -2.5989   -2.1007   -1.4899 H   0  0  0  0  0  0  0  0  0  0  0  0
   -2.1382   -0.3797   -1.6249 H   0  0  0  0  0  0  0  0  0  0  0  0
    2.5471    0.3525    0.0435 Br  0  0  0  0  0 15  0  0  0  0  0  0
   -2.1297    0.3399    0.7904 C   0  0  0  0  0  0  0  0  0  0  0  0
   -1.4930    1.1736    0.4171 H   0  0  0  0  0  0  0  0  0  0  0  0
   -2.3114    0.2985    1.8405 H   0  0  0  0  0  0  0  0  0  0  0  0
   -3.5632    0.5348    0.1875 C   0  0  0  0  0  0  0  0  0  0  0  0
   -3.7647    1.5334   -0.3910 H   0  0  0  0  0  0  0  0  0  0  0  0
   -4.4284    0.4649    0.9443 H   0  0  0  0  0  0  0  0  0  0  0  0
   -3.8549   -0.6858   -0.5804 O   0  0  0  0  0  0  0  0  0  0  0  0
  1  2  1  0  0  0  0
  1  8  1  0  0  0  0
  1  3  1  0  0  0  0
  4 14  1  0  0  0  0
  4  1  1  0  0  0  0
  5  4  1  0  0  0  0
  6  4  1  0  0  0  0
  8 10  1  0  0  0  0
  9  8  1  0  0  0  0
 11  8  1  0  0  0  0
 11 13  1  0  0  0  0
 12 11  1  0  0  0  0
 14 11  1  0  0  0  0
M  END
$$$$
Title Card Required
 OpenBabel06272217483D

 14 13  0  0  0  0  0  0  0  0999 V2000
   -1.6642   -1.0071    0.3317 C   0  0  0  0  0  0  0  0  0  0  0  0
   -0.4821   -1.3778    0.4367 H   0  0  0  0  0  0  0  0  0  0  0  0
   -2.2590   -1.5896    1.0741 H   0  0  0  0  0  0  0  0  0  0  0  0
   -2.6165   -1.1159   -0.9115 C   0  0  0  0  0  0  0  0  0  0  0  0
   -2.6493   -2.0423   -1.5088 H   0  0  0  0  0  0  0  0  0  0  0  0
   -2.0254   -0.3693   -1.5979 H   0  0  0  0  0  0  0  0  0  0  0  0
    2.5430    0.3527    0.0432 Br  0  0  0  0  0 15  0  0  0  0  0  0
   -2.1321    0.3456    0.7811 C   0  0  0  0  0  0  0  0  0  0  0  0
   -1.5119    1.2157    0.4331 H   0  0  0  0  0  0  0  0  0  0  0  0
   -2.2298    0.2637    1.8842 H   0  0  0  0  0  0  0  0  0  0  0  0
   -3.5622    0.5091    0.1753 C   0  0  0  0  0  0  0  0  0  0  0  0
   -3.7110    1.5157   -0.3834 H   0  0  0  0  0  0  0  0  0  0  0  0
   -4.4269    0.4581    0.8915 H   0  0  0  0  0  0  0  0  0  0  0  0
   -3.8477   -0.6674   -0.5730 O   0  0  0  0  0  0  0  0  0  0  0  0
  1  2  1  0  0  0  0
  1  8  1  0  0  0  0
  1  3  1  0  0  0  0
  4 14  1  0  0  0  0
  4  1  1  0  0  0  0
  5  4  1  0  0  0  0
  6  4  1  0  0  0  0
  8 10  1  0  0  0  0
  9  8  1  0  0  0  0
 11  8  1  0  0  0  0
 11 13  1  0  0  0  0
 12 11  1  0  0  0  0
 14 11  1  0  0  0  0
M  END
$$$$
Title Card Required
 OpenBabel06272217483D

 14 13  0  0  0  0  0  0  0  0999 V2000
   -1.6693   -1.0184    0.3392 C   0  0  0  0  0  0  0  0  0  0  0  0
   -0.4653   -1.4250    0.3862 H   0  0  0  0  0  0  0  0  0  0  0  0
   -2.2115   -1.5694    1.1072 H   0  0  0  0  0  0  0  0  0  0  0  0
   -2.6118   -1.1143   -0.9074 C   0  0  0  0  0  0  0  0  0  0  0  0
   -2.7031   -1.9841   -1.5227 H   0  0  0  0  0  0  0  0  0  0  0  0
   -1.9225   -0.3672   -1.5678 H   0  0  0  0  0  0  0  0  0  0  0  0
    2.5388    0.3529    0.0428 Br  0  0  0  0  0 15  0  0  0  0  0  0
   -2.1346    0.3530    0.7721 C   0  0  0  0  0  0  0  0  0  0  0  0
   -1.5324    1.2514    0.4554 H   0  0  0  0  0  0  0  0  0  0  0  0
   -2.1421    0.2372    1.9257 H   0  0  0  0  0  0  0  0  0  0  0  0
   -3.5627    0.4832    0.1633 C   0  0  0  0  0  0  0  0  0  0  0  0
   -3.6509    1.4810   -0.3735 H   0  0  0  0  0  0  0  0  0  0  0  0
   -4.4162    0.4579    0.8392 H   0  0  0  0  0  0  0  0  0  0  0  0
   -3.8403   -0.6478   -0.5653 O   0  0  0  0  0  0  0  0  0  0  0  0
  1  2  1  0  0  0  0
  1  8  1  0  0  0  0
  1  3  1  0  0  0  0
  4 14  1  0  0  0  0
  4  1  1  0  0  0  0
  5  4  1  0  0  0  0
  6  4  1  0  0  0  0
  8 10  1  0  0  0  0
  9  8  1  0  0  0  0
 11  8  1  0  0  0  0
 11 13  1  0  0  0  0
 12 11  1  0  0  0  0
 14 11  1  0  0  0  0
M  END
$$$$
Title Card Required
 OpenBabel06272217483D

 14 13  0  0  0  0  0  0  0  0999 V2000
   -1.6741   -1.0325    0.3472 C   0  0  0  0  0  0  0  0  0  0  0  0
   -0.4866   -1.4530    0.3242 H   0  0  0  0  0  0  0  0  0  0  0  0
   -2.1583   -1.5615    1.1453 H   0  0  0  0  0  0  0  0  0  0  0  0
   -2.6021   -1.1114   -0.9053 C   0  0  0  0  0  0  0  0  0  0  0  0
   -2.7605   -1.9366   -1.5381 H   0  0  0  0  0  0  0  0  0  0  0  0
   -1.8366   -0.3770   -1.5313 H   0  0  0  0  0  0  0  0  0  0  0  0
    2.5343    0.3531    0.0424 Br  0  0  0  0  0 15  0  0  0  0  0  0
   -2.1366    0.3622    0.7647 C   0  0  0  0  0  0  0  0  0  0  0  0
   -1.5552    1.2782    0.4833 H   0  0  0  0  0  0  0  0  0  0  0  0
   -2.0500    0.2220    1.9513 H   0  0  0  0  0  0  0  0  0  0  0  0
   -3.5641    0.4574    0.1520 C   0  0  0  0  0  0  0  0  0  0  0  0
   -3.5853    1.4322   -0.3654 H   0  0  0  0  0  0  0  0  0  0  0  0
   -4.4039    0.4662    0.7962 H   0  0  0  0  0  0  0  0  0  0  0  0
   -3.8322   -0.6271   -0.5579 O   0  0  0  0  0  0  0  0  0  0  0  0
  1  8  1  0  0  0  0
  1  3  1  0  0  0  0
  2  1  1  0  0  0  0
  4 14  1  0  0  0  0
  4  1  1  0  0  0  0
  5  4  1  0  0  0  0
  6  4  1  0  0  0  0
  8 10  1  0  0  0  0
  9  8  1  0  0  0  0
 11  8  1  0  0  0  0
 11 13  1  0  0  0  0
 12 11  1  0  0  0  0
 14 11  1  0  0  0  0
M  END
$$$$
Title Card Required
 OpenBabel06272217483D

 14 13  0  0  0  0  0  0  0  0999 V2000
   -1.6782   -1.0494    0.3552 C   0  0  0  0  0  0  0  0  0  0  0  0
   -0.5506   -1.4565    0.2527 H   0  0  0  0  0  0  0  0  0  0  0  0
   -2.1038   -1.5718    1.1925 H   0  0  0  0  0  0  0  0  0  0  0  0
   -2.5866   -1.1069   -0.9049 C   0  0  0  0  0  0  0  0  0  0  0  0
   -2.8192   -1.9106   -1.5604 H   0  0  0  0  0  0  0  0  0  0  0  0
   -1.7778   -0.4006   -1.4885 H   0  0  0  0  0  0  0  0  0  0  0  0
    2.5294    0.3533    0.0420 Br  0  0  0  0  0 15  0  0  0  0  0  0
   -2.1376    0.3725    0.7605 C   0  0  0  0  0  0  0  0  0  0  0  0
   -1.5786    1.2942    0.5135 H   0  0  0  0  0  0  0  0  0  0  0  0
   -1.9604    0.2219    1.9488 H   0  0  0  0  0  0  0  0  0  0  0  0
   -3.5651    0.4333    0.1426 C   0  0  0  0  0  0  0  0  0  0  0  0
   -3.5170    1.3786   -0.3669 H   0  0  0  0  0  0  0  0  0  0  0  0
   -4.4012    0.4859    0.7751 H   0  0  0  0  0  0  0  0  0  0  0  0
   -3.8233   -0.6067   -0.5519 O   0  0  0  0  0  0  0  0  0  0  0  0
  1  8  1  0  0  0  0
  1  3  1  0  0  0  0
  2  1  1  0  0  0  0
  4 14  1  0  0  0  0
  4  1  1  0  0  0  0
  5  4  1  0  0  0  0
  6  4  1  0  0  0  0
  8 10  1  0  0  0  0
  9  8  1  0  0  0  0
 11  8  1  0  0  0  0
 11 13  1  0  0  0  0
 12 11  1  0  0  0  0
 14 11  1  0  0  0  0
M  END
$$$$
Title Card Required
 OpenBabel06272217483D

 14 13  0  0  0  0  0  0  0  0999 V2000
   -1.6817   -1.0681    0.3626 C   0  0  0  0  0  0  0  0  0  0  0  0
   -0.6478   -1.4344    0.1773 H   0  0  0  0  0  0  0  0  0  0  0  0
   -2.0523   -1.6012    1.2458 H   0  0  0  0  0  0  0  0  0  0  0  0
   -2.5662   -1.1014   -0.9063 C   0  0  0  0  0  0  0  0  0  0  0  0
   -2.8731   -1.9069   -1.5869 H   0  0  0  0  0  0  0  0  0  0  0  0
   -1.7547   -0.4360   -1.4440 H   0  0  0  0  0  0  0  0  0  0  0  0
    2.5244    0.3535    0.0415 Br  0  0  0  0  0 15  0  0  0  0  0  0
   -2.1369    0.3824    0.7607 C   0  0  0  0  0  0  0  0  0  0  0  0
   -1.5980    1.3011    0.5395 H   0  0  0  0  0  0  0  0  0  0  0  0
   -1.8842    0.2391    1.9137 H   0  0  0  0  0  0  0  0  0  0  0  0
   -3.5647    0.4143    0.1378 C   0  0  0  0  0  0  0  0  0  0  0  0
   -3.4513    1.3353   -0.3862 H   0  0  0  0  0  0  0  0  0  0  0  0
   -4.4141    0.5191    0.7829 H   0  0  0  0  0  0  0  0  0  0  0  0
   -3.8139   -0.5894   -0.5492 O   0  0  0  0  0  0  0  0  0  0  0  0
  1  8  1  0  0  0  0
  1  3  1  0  0  0  0
  2  1  1  0  0  0  0
  4 14  1  0  0  0  0
  4  1  1  0  0  0  0
  5  4  1  0  0  0  0
  6  4  1  0  0  0  0
  8 10  1  0  0  0  0
  9  8  1  0  0  0  0
 11  8  1  0  0  0  0
 11 13  1  0  0  0  0
 12 11  1  0  0  0  0
 14 11  1  0  0  0  0
M  END
$$$$
Title Card Required
 OpenBabel06272217483D

 14 13  0  0  0  0  0  0  0  0999 V2000
   -1.6869   -1.0878    0.3699 C   0  0  0  0  0  0  0  0  0  0  0  0
   -0.7485   -1.3945    0.0983 H   0  0  0  0  0  0  0  0  0  0  0  0
   -2.0027   -1.6450    1.2960 H   0  0  0  0  0  0  0  0  0  0  0  0
   -2.5422   -1.0967   -0.9097 C   0  0  0  0  0  0  0  0  0  0  0  0
   -2.9139   -1.9156   -1.6080 H   0  0  0  0  0  0  0  0  0  0  0  0
   -1.7659   -0.4764   -1.4053 H   0  0  0  0  0  0  0  0  0  0  0  0
    2.5191    0.3537    0.0410 Br  0  0  0  0  0 15  0  0  0  0  0  0
   -2.1339    0.3904    0.7658 C   0  0  0  0  0  0  0  0  0  0  0  0
   -1.6081    1.3047    0.5545 H   0  0  0  0  0  0  0  0  0  0  0  0
   -1.8283    0.2722    1.8517 H   0  0  0  0  0  0  0  0  0  0  0  0
   -3.5629    0.4035    0.1405 C   0  0  0  0  0  0  0  0  0  0  0  0
   -3.3913    1.3109   -0.4266 H   0  0  0  0  0  0  0  0  0  0  0  0
   -4.4355    0.5658    0.8126 H   0  0  0  0  0  0  0  0  0  0  0  0
   -3.8042   -0.5773   -0.5514 O   0  0  0  0  0  0  0  0  0  0  0  0
  1  8  1  0  0  0  0
  1  3  1  0  0  0  0
  2  1  1  0  0  0  0
  4 14  1  0  0  0  0
  4  1  1  0  0  0  0
  5  4  1  0  0  0  0
  6  4  1  0  0  0  0
  8 10  1  0  0  0  0
  9  8  1  0  0  0  0
 11  8  1  0  0  0  0
 11 13  1  0  0  0  0
 12 11  1  0  0  0  0
 14 11  1  0  0  0  0
M  END
$$$$
Title Card Required
 OpenBabel06272217483D

 14 13  0  0  0  0  0  0  0  0999 V2000
   -1.6982   -1.1081    0.3792 C   0  0  0  0  0  0  0  0  0  0  0  0
   -0.8014   -1.3496    0.0051 H   0  0  0  0  0  0  0  0  0  0  0  0
   -1.9503   -1.6980    1.3304 H   0  0  0  0  0  0  0  0  0  0  0  0
   -2.5165   -1.0955   -0.9150 C   0  0  0  0  0  0  0  0  0  0  0  0
   -2.9317   -1.9257   -1.6128 H   0  0  0  0  0  0  0  0  0  0  0  0
   -1.8002   -0.5069   -1.3872 H   0  0  0  0  0  0  0  0  0  0  0  0
    2.5132    0.3539    0.0405 Br  0  0  0  0  0 15  0  0  0  0  0  0
   -2.1285    0.3954    0.7754 C   0  0  0  0  0  0  0  0  0  0  0  0
   -1.6032    1.3103    0.5501 H   0  0  0  0  0  0  0  0  0  0  0  0
   -1.7950    0.3199    1.7805 H   0  0  0  0  0  0  0  0  0  0  0  0
   -3.5598    0.4052    0.1534 C   0  0  0  0  0  0  0  0  0  0  0  0
   -3.3398    1.3034   -0.4849 H   0  0  0  0  0  0  0  0  0  0  0  0
   -4.4507    0.6249    0.8512 H   0  0  0  0  0  0  0  0  0  0  0  0
   -3.7939   -0.5724   -0.5599 O   0  0  0  0  0  0  0  0  0  0  0  0
  1  8  1  0  0  0  0
  1  3  1  0  0  0  0
  2  1  1  0  0  0  0
  4 14  1  0  0  0  0
  4  1  1  0  0  0  0
  5  4  1  0  0  0  0
  6  4  1  0  0  0  0
  8 10  1  0  0  0  0
  9  8  1  0  0  0  0
 11  8  1  0  0  0  0
 11 13  1  0  0  0  0
 12 11  1  0  0  0  0
 14 11  1  0  0  0  0
M  END
$$$$
Title Card Required
 OpenBabel06272217483D

 14 13  0  0  0  0  0  0  0  0999 V2000
   -1.7158   -1.1267    0.3905 C   0  0  0  0  0  0  0  0  0  0  0  0
   -0.7738   -1.3093   -0.0951 H   0  0  0  0  0  0  0  0  0  0  0  0
   -1.8984   -1.7491    1.3335 H   0  0  0  0  0  0  0  0  0  0  0  0
   -2.4956   -1.1010   -0.9202 C   0  0  0  0  0  0  0  0  0  0  0  0
   -2.9155   -1.9300   -1.5944 H   0  0  0  0  0  0  0  0  0  0  0  0
   -1.8275   -0.4996   -1.4127 H   0  0  0  0  0  0  0  0  0  0  0  0
    2.5073    0.3541    0.0400 Br  0  0  0  0  0 15  0  0  0  0  0  0
   -2.1215    0.3965    0.7858 C   0  0  0  0  0  0  0  0  0  0  0  0
   -1.5819    1.3152    0.5202 H   0  0  0  0  0  0  0  0  0  0  0  0
   -1.7832    0.3723    1.7488 H   0  0  0  0  0  0  0  0  0  0  0  0
   -3.5560    0.4218    0.1755 C   0  0  0  0  0  0  0  0  0  0  0  0
   -3.3090    1.3035   -0.5412 H   0  0  0  0  0  0  0  0  0  0  0  0
   -4.4443    0.6846    0.8799 H   0  0  0  0  0  0  0  0  0  0  0  0
   -3.7840   -0.5754   -0.5742 O   0  0  0  0  0  0  0  0  0  0  0  0
  1  8  1  0  0  0  0
  1  3  1  0  0  0  0
  2  1  1  0  0  0  0
  4 14  1  0  0  0  0
  4  1  1  0  0  0  0
  5  4  1  0  0  0  0
  6  4  1  0  0  0  0
  8 10  1  0  0  0  0
  9  8  1  0  0  0  0
 11  8  1  0  0  0  0
 11 13  1  0  0  0  0
 12 11  1  0  0  0  0
 14 11  1  0  0  0  0
M  END
$$$$
Title Card Required
 OpenBabel06272217483D

 14 13  0  0  0  0  0  0  0  0999 V2000
   -1.7325   -1.1419    0.4003 C   0  0  0  0  0  0  0  0  0  0  0  0
   -0.7172   -1.2703   -0.1685 H   0  0  0  0  0  0  0  0  0  0  0  0
   -1.8545   -1.7910    1.3088 H   0  0  0  0  0  0  0  0  0  0  0  0
   -2.4826   -1.1115   -0.9234 C   0  0  0  0  0  0  0  0  0  0  0  0
   -2.8723   -1.9320   -1.5616 H   0  0  0  0  0  0  0  0  0  0  0  0
   -1.8367   -0.4561   -1.4748 H   0  0  0  0  0  0  0  0  0  0  0  0
    2.5019    0.3542    0.0396 Br  0  0  0  0  0 15  0  0  0  0  0  0
   -2.1144    0.3945    0.7933 C   0  0  0  0  0  0  0  0  0  0  0  0
   -1.5527    1.3096    0.4731 H   0  0  0  0  0  0  0  0  0  0  0  0
   -1.7837    0.4203    1.7810 H   0  0  0  0  0  0  0  0  0  0  0  0
   -3.5518    0.4479    0.1999 C   0  0  0  0  0  0  0  0  0  0  0  0
   -3.3030    1.3020   -0.5759 H   0  0  0  0  0  0  0  0  0  0  0  0
   -4.4172    0.7328    0.8910 H   0  0  0  0  0  0  0  0  0  0  0  0
   -3.7754   -0.5831   -0.5903 O   0  0  0  0  0  0  0  0  0  0  0  0
  1  8  1  0  0  0  0
  1  3  1  0  0  0  0
  2  1  1  0  0  0  0
  4 14  1  0  0  0  0
  4  1  1  0  0  0  0
  5  4  1  0  0  0  0
  6  4  1  0  0  0  0
  8 10  1  0  0  0  0
  9  8  1  0  0  0  0
 11  8  1  0  0  0  0
 11 13  1  0  0  0  0
 12 11  1  0  0  0  0
 14 11  1  0  0  0  0
M  END
$$$$
Title Card Required
 OpenBabel06272217483D

 14 13  0  0  0  0  0  0  0  0999 V2000
   -1.7448   -1.1540    0.4067 C   0  0  0  0  0  0  0  0  0  0  0  0
   -0.6719   -1.2295   -0.2026 H   0  0  0  0  0  0  0  0  0  0  0  0
   -1.8194   -1.8283    1.2690 H   0  0  0  0  0  0  0  0  0  0  0  0
   -2.4745   -1.1233   -0.9254 C   0  0  0  0  0  0  0  0  0  0  0  0
   -2.8138   -1.9418   -1.5261 H   0  0  0  0  0  0  0  0  0  0  0  0
   -1.8447   -0.4025   -1.5485 H   0  0  0  0  0  0  0  0  0  0  0  0
    2.4969    0.3544    0.0391 Br  0  0  0  0  0 15  0  0  0  0  0  0
   -2.1068    0.3907    0.7991 C   0  0  0  0  0  0  0  0  0  0  0  0
   -1.5221    1.2873    0.4178 H   0  0  0  0  0  0  0  0  0  0  0  0
   -1.7949    0.4652    1.8497 H   0  0  0  0  0  0  0  0  0  0  0  0
   -3.5470    0.4786    0.2230 C   0  0  0  0  0  0  0  0  0  0  0  0
   -3.3164    1.2975   -0.5872 H   0  0  0  0  0  0  0  0  0  0  0  0
   -4.3796    0.7707    0.8904 H   0  0  0  0  0  0  0  0  0  0  0  0
   -3.7679   -0.5924   -0.6062 O   0  0  0  0  0  0  0  0  0  0  0  0
  1  8  1  0  0  0  0
  1  3  1  0  0  0  0
  2  1  1  0  0  0  0
  4 14  1  0  0  0  0
  4  1  1  0  0  0  0
  5  4  1  0  0  0  0
  6  4  1  0  0  0  0
  8 10  1  0  0  0  0
  9  8  1  0  0  0  0
 11  8  1  0  0  0  0
 11 13  1  0  0  0  0
 12 11  1  0  0  0  0
 14 11  1  0  0  0  0
M  END
$$$$
Title Card Required
 OpenBabel06272217483D

 14 13  0  0  0  0  0  0  0  0999 V2000
   -1.7524   -1.1630    0.4091 C   0  0  0  0  0  0  0  0  0  0  0  0
   -0.6474   -1.1867   -0.1976 H   0  0  0  0  0  0  0  0  0  0  0  0
   -1.7920   -1.8681    1.2230 H   0  0  0  0  0  0  0  0  0  0  0  0
   -2.4687   -1.1341   -0.9267 C   0  0  0  0  0  0  0  0  0  0  0  0
   -2.7466   -1.9697   -1.4958 H   0  0  0  0  0  0  0  0  0  0  0  0
   -1.8639   -0.3573   -1.6175 H   0  0  0  0  0  0  0  0  0  0  0  0
    2.4919    0.3545    0.0387 Br  0  0  0  0  0 15  0  0  0  0  0  0
   -2.0980    0.3855    0.8055 C   0  0  0  0  0  0  0  0  0  0  0  0
   -1.4919    1.2442    0.3587 H   0  0  0  0  0  0  0  0  0  0  0  0
   -1.8204    0.5090    1.9243 H   0  0  0  0  0  0  0  0  0  0  0  0
   -3.5405    0.5124    0.2437 C   0  0  0  0  0  0  0  0  0  0  0  0
   -3.3451    1.2915   -0.5771 H   0  0  0  0  0  0  0  0  0  0  0  0
   -4.3417    0.8023    0.8873 H   0  0  0  0  0  0  0  0  0  0  0  0
   -3.7608   -0.6025   -0.6217 O   0  0  0  0  0  0  0  0  0  0  0  0
  1  8  1  0  0  0  0
  1  3  1  0  0  0  0
  2  1  1  0  0  0  0
  4 14  1  0  0  0  0
  4  1  1  0  0  0  0
  5  4  1  0  0  0  0
  6  4  1  0  0  0  0
  8 10  1  0  0  0  0
  9  8  1  0  0  0  0
 11  8  1  0  0  0  0
 11 13  1  0  0  0  0
 12 11  1  0  0  0  0
 14 11  1  0  0  0  0
M  END
$$$$
Title Card Required
 OpenBabel06272217483D

 14 13  0  0  0  0  0  0  0  0999 V2000
   -1.7551   -1.1685    0.4073 C   0  0  0  0  0  0  0  0  0  0  0  0
   -0.6465   -1.1438   -0.1551 H   0  0  0  0  0  0  0  0  0  0  0  0
   -1.7727   -1.9151    1.1778 H   0  0  0  0  0  0  0  0  0  0  0  0
   -2.4641   -1.1422   -0.9276 C   0  0  0  0  0  0  0  0  0  0  0  0
   -2.6753   -2.0215   -1.4759 H   0  0  0  0  0  0  0  0  0  0  0  0
   -1.8976   -0.3317   -1.6712 H   0  0  0  0  0  0  0  0  0  0  0  0
    2.4870    0.3546    0.0383 Br  0  0  0  0  0 15  0  0  0  0  0  0
   -2.0877    0.3793    0.8138 C   0  0  0  0  0  0  0  0  0  0  0  0
   -1.4628    1.1796    0.3010 H   0  0  0  0  0  0  0  0  0  0  0  0
   -1.8609    0.5502    1.9820 H   0  0  0  0  0  0  0  0  0  0  0  0
   -3.5316    0.5472    0.2606 C   0  0  0  0  0  0  0  0  0  0  0  0
   -3.3854    1.2881   -0.5495 H   0  0  0  0  0  0  0  0  0  0  0  0
   -4.3157    0.8305    0.8915 H   0  0  0  0  0  0  0  0  0  0  0  0
   -3.7542   -0.6126   -0.6362 O   0  0  0  0  0  0  0  0  0  0  0  0
  1  8  1  0  0  0  0
  1  3  1  0  0  0  0
  2  1  1  0  0  0  0
  4 14  1  0  0  0  0
  4  1  1  0  0  0  0
  5  4  1  0  0  0  0
  6  4  1  0  0  0  0
  8 10  1  0  0  0  0
  9  8  1  0  0  0  0
 11  8  1  0  0  0  0
 11 13  1  0  0  0  0
 12 11  1  0  0  0  0
 14 11  1  0  0  0  0
M  END
$$$$
Title Card Required
 OpenBabel06272217483D

 14 13  0  0  0  0  0  0  0  0999 V2000
   -1.7531   -1.1700    0.4017 C   0  0  0  0  0  0  0  0  0  0  0  0
   -0.6669   -1.1040   -0.0820 H   0  0  0  0  0  0  0  0  0  0  0  0
   -1.7624   -1.9678    1.1370 H   0  0  0  0  0  0  0  0  0  0  0  0
   -2.4608   -1.1471   -0.9285 C   0  0  0  0  0  0  0  0  0  0  0  0
   -2.6039   -2.0892   -1.4640 H   0  0  0  0  0  0  0  0  0  0  0  0
   -1.9424   -0.3309   -1.7033 H   0  0  0  0  0  0  0  0  0  0  0  0
    2.4821    0.3547    0.0379 Br  0  0  0  0  0 15  0  0  0  0  0  0
   -2.0768    0.3725    0.8243 C   0  0  0  0  0  0  0  0  0  0  0  0
   -1.4356    1.0993    0.2507 H   0  0  0  0  0  0  0  0  0  0  0  0
   -1.9118    0.5858    2.0093 H   0  0  0  0  0  0  0  0  0  0  0  0
   -3.5200    0.5801    0.2732 C   0  0  0  0  0  0  0  0  0  0  0  0
   -3.4309    1.2945   -0.5142 H   0  0  0  0  0  0  0  0  0  0  0  0
   -4.3098    0.8555    0.9097 H   0  0  0  0  0  0  0  0  0  0  0  0
   -3.7483   -0.6220   -0.6493 O   0  0  0  0  0  0  0  0  0  0  0  0
  1  8  1  0  0  0  0
  1  3  1  0  0  0  0
  2  1  1  0  0  0  0
  4 14  1  0  0  0  0
  4  1  1  0  0  0  0
  5  4  1  0  0  0  0
  6  4  1  0  0  0  0
  8 10  1  0  0  0  0
  9  8  1  0  0  0  0
 11  8  1  0  0  0  0
 11 13  1  0  0  0  0
 12 11  1  0  0  0  0
 14 11  1  0  0  0  0
M  END
$$$$
Title Card Required
 OpenBabel06272217483D

 14 13  0  0  0  0  0  0  0  0999 V2000
   -1.7473   -1.1682    0.3939 C   0  0  0  0  0  0  0  0  0  0  0  0
   -0.6999   -1.0692    0.0107 H   0  0  0  0  0  0  0  0  0  0  0  0
   -1.7608   -2.0209    1.0986 H   0  0  0  0  0  0  0  0  0  0  0  0
   -2.4587   -1.1500   -0.9303 C   0  0  0  0  0  0  0  0  0  0  0  0
   -2.5344   -2.1571   -1.4529 H   0  0  0  0  0  0  0  0  0  0  0  0
   -1.9925   -0.3534   -1.7141 H   0  0  0  0  0  0  0  0  0  0  0  0
    2.4775    0.3548    0.0375 Br  0  0  0  0  0 15  0  0  0  0  0  0
   -2.0662    0.3652    0.8365 C   0  0  0  0  0  0  0  0  0  0  0  0
   -1.4093    1.0108    0.2103 H   0  0  0  0  0  0  0  0  0  0  0  0
   -1.9666    0.6142    2.0050 H   0  0  0  0  0  0  0  0  0  0  0  0
   -3.5065    0.6095    0.2823 C   0  0  0  0  0  0  0  0  0  0  0  0
   -3.4761    1.3180   -0.4835 H   0  0  0  0  0  0  0  0  0  0  0  0
   -4.3202    0.8751    0.9396 H   0  0  0  0  0  0  0  0  0  0  0  0
   -3.7431   -0.6303   -0.6605 O   0  0  0  0  0  0  0  0  0  0  0  0
  1  8  1  0  0  0  0
  1  3  1  0  0  0  0
  2  1  1  0  0  0  0
  4 14  1  0  0  0  0
  4  1  1  0  0  0  0
  5  4  1  0  0  0  0
  6  4  1  0  0  0  0
  8 10  1  0  0  0  0
  9  8  1  0  0  0  0
 11  8  1  0  0  0  0
 11 13  1  0  0  0  0
 12 11  1  0  0  0  0
 14 11  1  0  0  0  0
M  END
$$$$
Title Card Required
 OpenBabel06272217483D

 14 13  0  0  0  0  0  0  0  0999 V2000
   -1.7392   -1.1639    0.3852 C   0  0  0  0  0  0  0  0  0  0  0  0
   -0.7309   -1.0392    0.1133 H   0  0  0  0  0  0  0  0  0  0  0  0
   -1.7676   -2.0689    1.0583 H   0  0  0  0  0  0  0  0  0  0  0  0
   -2.4575   -1.1521   -0.9333 C   0  0  0  0  0  0  0  0  0  0  0  0
   -2.4673   -2.2137   -1.4364 H   0  0  0  0  0  0  0  0  0  0  0  0
   -2.0434   -0.3954   -1.7078 H   0  0  0  0  0  0  0  0  0  0  0  0
    2.4728    0.3549    0.0371 Br  0  0  0  0  0 15  0  0  0  0  0  0
   -2.0564    0.3574    0.8501 C   0  0  0  0  0  0  0  0  0  0  0  0
   -1.3819    0.9194    0.1795 H   0  0  0  0  0  0  0  0  0  0  0  0
   -2.0210    0.6358    1.9737 H   0  0  0  0  0  0  0  0  0  0  0  0
   -3.4920    0.6353    0.2895 C   0  0  0  0  0  0  0  0  0  0  0  0
   -3.5189    1.3625   -0.4642 H   0  0  0  0  0  0  0  0  0  0  0  0
   -4.3369    0.8864    0.9749 H   0  0  0  0  0  0  0  0  0  0  0  0
   -3.7385   -0.6376   -0.6702 O   0  0  0  0  0  0  0  0  0  0  0  0
  1  8  1  0  0  0  0
  1  3  1  0  0  0  0
  2  1  1  0  0  0  0
  4 14  1  0  0  0  0
  4  1  1  0  0  0  0
  5  4  1  0  0  0  0
  6  4  1  0  0  0  0
  8 10  1  0  0  0  0
  9  8  1  0  0  0  0
 11  8  1  0  0  0  0
 11 13  1  0  0  0  0
 12 11  1  0  0  0  0
 14 11  1  0  0  0  0
M  END
$$$$
Title Card Required
 OpenBabel06272217483D

 14 13  0  0  0  0  0  0  0  0999 V2000
   -1.7306   -1.1579    0.3767 C   0  0  0  0  0  0  0  0  0  0  0  0
   -0.7391   -1.0120    0.2187 H   0  0  0  0  0  0  0  0  0  0  0  0
   -1.7834   -2.1071    1.0121 H   0  0  0  0  0  0  0  0  0  0  0  0
   -2.4570   -1.1547   -0.9376 C   0  0  0  0  0  0  0  0  0  0  0  0
   -2.4033   -2.2520   -1.4106 H   0  0  0  0  0  0  0  0  0  0  0  0
   -2.0901   -0.4521   -1.6905 H   0  0  0  0  0  0  0  0  0  0  0  0
    2.4680    0.3550    0.0367 Br  0  0  0  0  0 15  0  0  0  0  0  0
   -2.0477    0.3485    0.8644 C   0  0  0  0  0  0  0  0  0  0  0  0
   -1.3511    0.8277    0.1584 H   0  0  0  0  0  0  0  0  0  0  0  0
   -2.0718    0.6522    1.9225 H   0  0  0  0  0  0  0  0  0  0  0  0
   -3.4767    0.6585    0.2958 C   0  0  0  0  0  0  0  0  0  0  0  0
   -3.5593    1.4274   -0.4557 H   0  0  0  0  0  0  0  0  0  0  0  0
   -4.3502    0.8863    1.0094 H   0  0  0  0  0  0  0  0  0  0  0  0
   -3.7346   -0.6440   -0.6786 O   0  0  0  0  0  0  0  0  0  0  0  0
  1  8  1  0  0  0  0
  1  3  1  0  0  0  0
  2  1  1  0  0  0  0
  4 14  1  0  0  0  0
  4  1  1  0  0  0  0
  5  4  1  0  0  0  0
  6  4  1  0  0  0  0
  8 10  1  0  0  0  0
  9  8  1  0  0  0  0
 11  8  1  0  0  0  0
 11 13  1  0  0  0  0
 12 11  1  0  0  0  0
 14 11  1  0  0  0  0
M  END
$$$$
Title Card Required
 OpenBabel06272217483D

 14 13  0  0  0  0  0  0  0  0999 V2000
   -1.7227   -1.1507    0.3692 C   0  0  0  0  0  0  0  0  0  0  0  0
   -0.7031   -0.9863    0.3237 H   0  0  0  0  0  0  0  0  0  0  0  0
   -1.8103   -2.1309    0.9569 H   0  0  0  0  0  0  0  0  0  0  0  0
   -2.4571   -1.1592   -0.9427 C   0  0  0  0  0  0  0  0  0  0  0  0
   -2.3447   -2.2665   -1.3723 H   0  0  0  0  0  0  0  0  0  0  0  0
   -2.1239   -0.5135   -1.6752 H   0  0  0  0  0  0  0  0  0  0  0  0
    2.4628    0.3550    0.0362 Br  0  0  0  0  0 15  0  0  0  0  0  0
   -2.0405    0.3379    0.8783 C   0  0  0  0  0  0  0  0  0  0  0  0
   -1.3152    0.7389    0.1493 H   0  0  0  0  0  0  0  0  0  0  0  0
   -2.1155    0.6669    1.8664 H   0  0  0  0  0  0  0  0  0  0  0  0
   -3.4610    0.6801    0.3010 C   0  0  0  0  0  0  0  0  0  0  0  0
   -3.5962    1.5065   -0.4503 H   0  0  0  0  0  0  0  0  0  0  0  0
   -4.3507    0.8714    1.0374 H   0  0  0  0  0  0  0  0  0  0  0  0
   -3.7314   -0.6495   -0.6859 O   0  0  0  0  0  0  0  0  0  0  0  0
  1  8  1  0  0  0  0
  1  3  1  0  0  0  0
  2  1  1  0  0  0  0
  4 14  1  0  0  0  0
  4  1  1  0  0  0  0
  5  4  1  0  0  0  0
  6  4  1  0  0  0  0
  8 10  1  0  0  0  0
  9  8  1  0  0  0  0
 11  8  1  0  0  0  0
 11 13  1  0  0  0  0
 12 11  1  0  0  0  0
 14 11  1  0  0  0  0
M  END
$$$$
Title Card Required
 OpenBabel06272217483D

 14 13  0  0  0  0  0  0  0  0999 V2000
   -1.7152   -1.1425    0.3634 C   0  0  0  0  0  0  0  0  0  0  0  0
   -0.6222   -0.9664    0.4273 H   0  0  0  0  0  0  0  0  0  0  0  0
   -1.8513   -2.1348    0.8924 H   0  0  0  0  0  0  0  0  0  0  0  0
   -2.4577   -1.1676   -0.9470 C   0  0  0  0  0  0  0  0  0  0  0  0
   -2.2969   -2.2528   -1.3199 H   0  0  0  0  0  0  0  0  0  0  0  0
   -2.1291   -0.5602   -1.6867 H   0  0  0  0  0  0  0  0  0  0  0  0
    2.4570    0.3551    0.0357 Br  0  0  0  0  0 15  0  0  0  0  0  0
   -2.0354    0.3247    0.8888 C   0  0  0  0  0  0  0  0  0  0  0  0
   -1.2740    0.6603    0.1577 H   0  0  0  0  0  0  0  0  0  0  0  0
   -2.1473    0.6875    1.8348 H   0  0  0  0  0  0  0  0  0  0  0  0
   -3.4451    0.7011    0.3043 C   0  0  0  0  0  0  0  0  0  0  0  0
   -3.6252    1.5875   -0.4355 H   0  0  0  0  0  0  0  0  0  0  0  0
   -4.3290    0.8375    1.0529 H   0  0  0  0  0  0  0  0  0  0  0  0
   -3.7289   -0.6538   -0.6916 O   0  0  0  0  0  0  0  0  0  0  0  0
  1  2  1  0  0  0  0
  1  8  1  0  0  0  0
  1  3  1  0  0  0  0
  4 14  1  0  0  0  0
  4  1  1  0  0  0  0
  5  4  1  0  0  0  0
  6  4  1  0  0  0  0
  8 10  1  0  0  0  0
  9  8  1  0  0  0  0
 11  8  1  0  0  0  0
 11 13  1  0  0  0  0
 12 11  1  0  0  0  0
 14 11  1  0  0  0  0
M  END
$$$$
Title Card Required
 OpenBabel06272217483D

 14 13  0  0  0  0  0  0  0  0999 V2000
   -1.7054   -1.1335    0.3603 C   0  0  0  0  0  0  0  0  0  0  0  0
   -0.5326   -0.9644    0.5185 H   0  0  0  0  0  0  0  0  0  0  0  0
   -1.9065   -2.1174    0.8282 H   0  0  0  0  0  0  0  0  0  0  0  0
   -2.4586   -1.1800   -0.9492 C   0  0  0  0  0  0  0  0  0  0  0  0
   -2.2703   -2.2176   -1.2591 H   0  0  0  0  0  0  0  0  0  0  0  0
   -2.0940   -0.5758   -1.7424 H   0  0  0  0  0  0  0  0  0  0  0  0
    2.4507    0.3552    0.0352 Br  0  0  0  0  0 15  0  0  0  0  0  0
   -2.0331    0.3090    0.8926 C   0  0  0  0  0  0  0  0  0  0  0  0
   -1.2317    0.6083    0.1894 H   0  0  0  0  0  0  0  0  0  0  0  0
   -2.1609    0.7187    1.8554 H   0  0  0  0  0  0  0  0  0  0  0  0
   -3.4304    0.7204    0.3041 C   0  0  0  0  0  0  0  0  0  0  0  0
   -3.6382    1.6498   -0.4004 H   0  0  0  0  0  0  0  0  0  0  0  0
   -4.2814    0.7845    1.0514 H   0  0  0  0  0  0  0  0  0  0  0  0
   -3.7275   -0.6561   -0.6951 O   0  0  0  0  0  0  0  0  0  0  0  0
  1  2  1  0  0  0  0
  1  3  1  0  0  0  0
  1  8  1  0  0  0  0
  4 14  1  0  0  0  0
  4  1  1  0  0  0  0
  5  4  1  0  0  0  0
  6  4  1  0  0  0  0
  8 10  1  0  0  0  0
  9  8  1  0  0  0  0
 11  8  1  0  0  0  0
 11 13  1  0  0  0  0
 12 11  1  0  0  0  0
 14 11  1  0  0  0  0
M  END
$$$$
Title Card Required
 OpenBabel06272217483D

 14 13  0  0  0  0  0  0  0  0999 V2000
   -1.6911   -1.1236    0.3608 C   0  0  0  0  0  0  0  0  0  0  0  0
   -0.4738   -0.9890    0.5844 H   0  0  0  0  0  0  0  0  0  0  0  0
   -1.9746   -2.0868    0.7780 H   0  0  0  0  0  0  0  0  0  0  0  0
   -2.4580   -1.1916   -0.9505 C   0  0  0  0  0  0  0  0  0  0  0  0
   -2.2701   -2.1889   -1.2023 H   0  0  0  0  0  0  0  0  0  0  0  0
   -2.0307   -0.5761   -1.8199 H   0  0  0  0  0  0  0  0  0  0  0  0
    2.4442    0.3553    0.0346 Br  0  0  0  0  0 15  0  0  0  0  0  0
   -2.0339    0.2926    0.8902 C   0  0  0  0  0  0  0  0  0  0  0  0
   -1.1923    0.5957    0.2445 H   0  0  0  0  0  0  0  0  0  0  0  0
   -2.1503    0.7491    1.9121 H   0  0  0  0  0  0  0  0  0  0  0  0
   -3.4170    0.7366    0.2994 C   0  0  0  0  0  0  0  0  0  0  0  0
   -3.6300    1.6810   -0.3428 H   0  0  0  0  0  0  0  0  0  0  0  0
   -4.2171    0.7167    1.0377 H   0  0  0  0  0  0  0  0  0  0  0  0
   -3.7269   -0.6560   -0.6961 O   0  0  0  0  0  0  0  0  0  0  0  0
  1  2  1  0  0  0  0
  1  3  1  0  0  0  0
  1  8  1  0  0  0  0
  4 14  1  0  0  0  0
  4  1  1  0  0  0  0
  5  4  1  0  0  0  0
  6  4  1  0  0  0  0
  8 10  1  0  0  0  0
  9  8  1  0  0  0  0
 11  8  1  0  0  0  0
 11 13  1  0  0  0  0
 12 11  1  0  0  0  0
 14 11  1  0  0  0  0
M  END
$$$$
Title Card Required
 OpenBabel06272217483D

 14 13  0  0  0  0  0  0  0  0999 V2000
   -1.6714   -1.1128    0.3652 C   0  0  0  0  0  0  0  0  0  0  0  0
   -0.4647   -1.0418    0.6160 H   0  0  0  0  0  0  0  0  0  0  0  0
   -2.0543   -2.0530    0.7543 H   0  0  0  0  0  0  0  0  0  0  0  0
   -2.4545   -1.1967   -0.9534 C   0  0  0  0  0  0  0  0  0  0  0  0
   -2.2957   -2.2033   -1.1628 H   0  0  0  0  0  0  0  0  0  0  0  0
   -1.9619   -0.5875   -1.8817 H   0  0  0  0  0  0  0  0  0  0  0  0
    2.4373    0.3554    0.0341 Br  0  0  0  0  0 15  0  0  0  0  0  0
   -2.0378    0.2780    0.8852 C   0  0  0  0  0  0  0  0  0  0  0  0
   -1.1572    0.6285    0.3200 H   0  0  0  0  0  0  0  0  0  0  0  0
   -2.1129    0.7580    1.9647 H   0  0  0  0  0  0  0  0  0  0  0  0
   -3.4032    0.7482    0.2899 C   0  0  0  0  0  0  0  0  0  0  0  0
   -3.6008    1.6836   -0.2701 H   0  0  0  0  0  0  0  0  0  0  0  0
   -4.1560    0.6382    1.0264 H   0  0  0  0  0  0  0  0  0  0  0  0
   -3.7262   -0.6534   -0.6947 O   0  0  0  0  0  0  0  0  0  0  0  0
  1  2  1  0  0  0  0
  1  3  1  0  0  0  0
  1  8  1  0  0  0  0
  4 14  1  0  0  0  0
  4  1  1  0  0  0  0
  5  4  1  0  0  0  0
  6  4  1  0  0  0  0
  8 10  1  0  0  0  0
  9  8  1  0  0  0  0
 11  8  1  0  0  0  0
 11 13  1  0  0  0  0
 12 11  1  0  0  0  0
 14 11  1  0  0  0  0
M  END
$$$$
Title Card Required
 OpenBabel06272217483D

 14 13  0  0  0  0  0  0  0  0999 V2000
   -1.6500   -1.1029    0.3727 C   0  0  0  0  0  0  0  0  0  0  0  0
   -0.5021   -1.1105    0.6114 H   0  0  0  0  0  0  0  0  0  0  0  0
   -2.1327   -2.0209    0.7614 H   0  0  0  0  0  0  0  0  0  0  0  0
   -2.4478   -1.1940   -0.9586 C   0  0  0  0  0  0  0  0  0  0  0  0
   -2.3416   -2.2590   -1.1455 H   0  0  0  0  0  0  0  0  0  0  0  0
   -1.9103   -0.6198   -1.9034 H   0  0  0  0  0  0  0  0  0  0  0  0
    2.4308    0.3554    0.0336 Br  0  0  0  0  0 15  0  0  0  0  0  0
   -2.0429    0.2685    0.8804 C   0  0  0  0  0  0  0  0  0  0  0  0
   -1.1316    0.6956    0.4019 H   0  0  0  0  0  0  0  0  0  0  0  0
   -2.0599    0.7337    1.9844 H   0  0  0  0  0  0  0  0  0  0  0  0
   -3.3891    0.7523    0.2776 C   0  0  0  0  0  0  0  0  0  0  0  0
   -3.5607    1.6775   -0.2060 H   0  0  0  0  0  0  0  0  0  0  0  0
   -4.1194    0.5611    1.0297 H   0  0  0  0  0  0  0  0  0  0  0  0
   -3.7248   -0.6485   -0.6916 O   0  0  0  0  0  0  0  0  0  0  0  0
  1  2  1  0  0  0  0
  1  3  1  0  0  0  0
  1  8  1  0  0  0  0
  4 14  1  0  0  0  0
  4  1  1  0  0  0  0
  5  4  1  0  0  0  0
  6  4  1  0  0  0  0
  8 10  1  0  0  0  0
  9  8  1  0  0  0  0
 11  8  1  0  0  0  0
 11 13  1  0  0  0  0
 12 11  1  0  0  0  0
 14 11  1  0  0  0  0
M  END
$$$$
Title Card Required
 OpenBabel06272217483D

 14 13  0  0  0  0  0  0  0  0999 V2000
   -1.6307   -1.0953    0.3816 C   0  0  0  0  0  0  0  0  0  0  0  0
   -0.5604   -1.1828    0.5828 H   0  0  0  0  0  0  0  0  0  0  0  0
   -2.1999   -1.9853    0.7897 H   0  0  0  0  0  0  0  0  0  0  0  0
   -2.4385   -1.1876   -0.9658 C   0  0  0  0  0  0  0  0  0  0  0  0
   -2.4009   -2.3178   -1.1414 H   0  0  0  0  0  0  0  0  0  0  0  0
   -1.8808   -0.6668   -1.8905 H   0  0  0  0  0  0  0  0  0  0  0  0
    2.4248    0.3554    0.0332 Br  0  0  0  0  0 15  0  0  0  0  0  0
   -2.0471    0.2641    0.8767 C   0  0  0  0  0  0  0  0  0  0  0  0
   -1.1188    0.7769    0.4813 H   0  0  0  0  0  0  0  0  0  0  0  0
   -2.0055    0.6826    1.9739 H   0  0  0  0  0  0  0  0  0  0  0  0
   -3.3752    0.7481    0.2656 C   0  0  0  0  0  0  0  0  0  0  0  0
   -3.5202    1.6863   -0.1649 H   0  0  0  0  0  0  0  0  0  0  0  0
   -4.1030    0.4933    1.0410 H   0  0  0  0  0  0  0  0  0  0  0  0
   -3.7222   -0.6419   -0.6876 O   0  0  0  0  0  0  0  0  0  0  0  0
  1  2  1  0  0  0  0
  1  3  1  0  0  0  0
  1  8  1  0  0  0  0
  4 14  1  0  0  0  0
  4  1  1  0  0  0  0
  5  4  1  0  0  0  0
  6  4  1  0  0  0  0
  8 10  1  0  0  0  0
  9  8  1  0  0  0  0
 11  8  1  0  0  0  0
 11 13  1  0  0  0  0
 12 11  1  0  0  0  0
 14 11  1  0  0  0  0
M  END
$$$$
Title Card Required
 OpenBabel06272217483D

 14 13  0  0  0  0  0  0  0  0999 V2000
   -1.6158   -1.0899    0.3909 C   0  0  0  0  0  0  0  0  0  0  0  0
   -0.6105   -1.2569    0.5417 H   0  0  0  0  0  0  0  0  0  0  0  0
   -2.2530   -1.9402    0.8306 H   0  0  0  0  0  0  0  0  0  0  0  0
   -2.4272   -1.1811   -0.9742 C   0  0  0  0  0  0  0  0  0  0  0  0
   -2.4694   -2.3560   -1.1431 H   0  0  0  0  0  0  0  0  0  0  0  0
   -1.8689   -0.7218   -1.8552 H   0  0  0  0  0  0  0  0  0  0  0  0
    2.4191    0.3554    0.0327 Br  0  0  0  0  0 15  0  0  0  0  0  0
   -2.0489    0.2641    0.8737 C   0  0  0  0  0  0  0  0  0  0  0  0
   -1.1203    0.8616    0.5565 H   0  0  0  0  0  0  0  0  0  0  0  0
   -1.9559    0.6116    1.9454 H   0  0  0  0  0  0  0  0  0  0  0  0
   -3.3621    0.7362    0.2551 C   0  0  0  0  0  0  0  0  0  0  0  0
   -3.4819    1.7151   -0.1451 H   0  0  0  0  0  0  0  0  0  0  0  0
   -4.0950    0.4376    1.0495 H   0  0  0  0  0  0  0  0  0  0  0  0
   -3.7182   -0.6335   -0.6831 O   0  0  0  0  0  0  0  0  0  0  0  0
  1  2  1  0  0  0  0
  1  3  1  0  0  0  0
  1  8  1  0  0  0  0
  4 14  1  0  0  0  0
  4  1  1  0  0  0  0
  5  4  1  0  0  0  0
  6  4  1  0  0  0  0
  8 10  1  0  0  0  0
  9  8  1  0  0  0  0
 11  8  1  0  0  0  0
 11 13  1  0  0  0  0
 12 11  1  0  0  0  0
 14 11  1  0  0  0  0
M  END
$$$$
Title Card Required
 OpenBabel06272217483D

 14 13  0  0  0  0  0  0  0  0999 V2000
   -1.6077   -1.0861    0.4001 C   0  0  0  0  0  0  0  0  0  0  0  0
   -0.6260   -1.3360    0.4956 H   0  0  0  0  0  0  0  0  0  0  0  0
   -2.2903   -1.8827    0.8799 H   0  0  0  0  0  0  0  0  0  0  0  0
   -2.4148   -1.1764   -0.9824 C   0  0  0  0  0  0  0  0  0  0  0  0
   -2.5433   -2.3641   -1.1476 H   0  0  0  0  0  0  0  0  0  0  0  0
   -1.8672   -0.7775   -1.8115 H   0  0  0  0  0  0  0  0  0  0  0  0
    2.4135    0.3554    0.0323 Br  0  0  0  0  0 15  0  0  0  0  0  0
   -2.0475    0.2680    0.8708 C   0  0  0  0  0  0  0  0  0  0  0  0
   -1.1371    0.9440    0.6258 H   0  0  0  0  0  0  0  0  0  0  0  0
   -1.9147    0.5254    1.9127 H   0  0  0  0  0  0  0  0  0  0  0  0
   -3.3500    0.7175    0.2461 C   0  0  0  0  0  0  0  0  0  0  0  0
   -3.4448    1.7527   -0.1388 H   0  0  0  0  0  0  0  0  0  0  0  0
   -4.0885    0.3969    1.0482 H   0  0  0  0  0  0  0  0  0  0  0  0
   -3.7123   -0.6230   -0.6782 O   0  0  0  0  0  0  0  0  0  0  0  0
  1  2  1  0  0  0  0
  1  8  1  0  0  0  0
  1  3  1  0  0  0  0
  4 14  1  0  0  0  0
  4  1  1  0  0  0  0
  5  4  1  0  0  0  0
  6  4  1  0  0  0  0
  8 10  1  0  0  0  0
  9  8  1  0  0  0  0
 11  8  1  0  0  0  0
 11 13  1  0  0  0  0
 12 11  1  0  0  0  0
 14 11  1  0  0  0  0
M  END
$$$$
Title Card Required
 OpenBabel06272217483D

 14 13  0  0  0  0  0  0  0  0999 V2000
   -1.6068   -1.0837    0.4086 C   0  0  0  0  0  0  0  0  0  0  0  0
   -0.6008   -1.4202    0.4478 H   0  0  0  0  0  0  0  0  0  0  0  0
   -2.3107   -1.8142    0.9340 H   0  0  0  0  0  0  0  0  0  0  0  0
   -2.4028   -1.1750   -0.9885 C   0  0  0  0  0  0  0  0  0  0  0  0
   -2.6168   -2.3390   -1.1535 H   0  0  0  0  0  0  0  0  0  0  0  0
   -1.8634   -0.8221   -1.7804 H   0  0  0  0  0  0  0  0  0  0  0  0
    2.4078    0.3555    0.0320 Br  0  0  0  0  0 15  0  0  0  0  0  0
   -2.0418    0.2751    0.8670 C   0  0  0  0  0  0  0  0  0  0  0  0
   -1.1690    1.0187    0.6853 H   0  0  0  0  0  0  0  0  0  0  0  0
   -1.8854    0.4301    1.8943 H   0  0  0  0  0  0  0  0  0  0  0  0
   -3.3398    0.6936    0.2383 C   0  0  0  0  0  0  0  0  0  0  0  0
   -3.4084    1.7807   -0.1387 H   0  0  0  0  0  0  0  0  0  0  0  0
   -4.0810    0.3746    1.0343 H   0  0  0  0  0  0  0  0  0  0  0  0
   -3.7042   -0.6101   -0.6731 O   0  0  0  0  0  0  0  0  0  0  0  0
  1  2  1  0  0  0  0
  1  8  1  0  0  0  0
  1  3  1  0  0  0  0
  4 14  1  0  0  0  0
  4  1  1  0  0  0  0
  5  4  1  0  0  0  0
  6  4  1  0  0  0  0
  8 10  1  0  0  0  0
  9  8  1  0  0  0  0
 11  8  1  0  0  0  0
 11 13  1  0  0  0  0
 12 11  1  0  0  0  0
 14 11  1  0  0  0  0
M  END
$$$$
Title Card Required
 OpenBabel06272217483D

 14 13  0  0  0  0  0  0  0  0999 V2000
   -1.6112   -1.0828    0.4155 C   0  0  0  0  0  0  0  0  0  0  0  0
   -0.5580   -1.5005    0.4004 H   0  0  0  0  0  0  0  0  0  0  0  0
   -2.3152   -1.7409    0.9896 H   0  0  0  0  0  0  0  0  0  0  0  0
   -2.3933   -1.1777   -0.9903 C   0  0  0  0  0  0  0  0  0  0  0  0
   -2.6839   -2.2854   -1.1602 H   0  0  0  0  0  0  0  0  0  0  0  0
   -1.8446   -0.8451   -1.7818 H   0  0  0  0  0  0  0  0  0  0  0  0
    2.4022    0.3554    0.0316 Br  0  0  0  0  0 15  0  0  0  0  0  0
   -2.0318    0.2851    0.8618 C   0  0  0  0  0  0  0  0  0  0  0  0
   -1.2127    1.0813    0.7310 H   0  0  0  0  0  0  0  0  0  0  0  0
   -1.8704    0.3313    1.9040 H   0  0  0  0  0  0  0  0  0  0  0  0
   -3.3319    0.6663    0.2316 C   0  0  0  0  0  0  0  0  0  0  0  0
   -3.3739    1.7844   -0.1398 H   0  0  0  0  0  0  0  0  0  0  0  0
   -4.0737    0.3717    1.0101 H   0  0  0  0  0  0  0  0  0  0  0  0
   -3.6940   -0.5950   -0.6680 O   0  0  0  0  0  0  0  0  0  0  0  0
  1  8  1  0  0  0  0
  1  3  1  0  0  0  0
  2  1  1  0  0  0  0
  4 14  1  0  0  0  0
  4  1  1  0  0  0  0
  5  4  1  0  0  0  0
  6  4  1  0  0  0  0
  8 10  1  0  0  0  0
  9  8  1  0  0  0  0
 11  8  1  0  0  0  0
 11 13  1  0  0  0  0
 12 11  1  0  0  0  0
 14 11  1  0  0  0  0
M  END
$$$$
Title Card Required
 OpenBabel06272217483D

 14 13  0  0  0  0  0  0  0  0999 V2000
   -1.6175   -1.0838    0.4202 C   0  0  0  0  0  0  0  0  0  0  0  0
   -0.5256   -1.5646    0.3571 H   0  0  0  0  0  0  0  0  0  0  0  0
   -2.3082   -1.6716    1.0445 H   0  0  0  0  0  0  0  0  0  0  0  0
   -2.3866   -1.1839   -0.9875 C   0  0  0  0  0  0  0  0  0  0  0  0
   -2.7405   -2.2171   -1.1677 H   0  0  0  0  0  0  0  0  0  0  0  0
   -1.8111   -0.8464   -1.8145 H   0  0  0  0  0  0  0  0  0  0  0  0
    2.3967    0.3554    0.0312 Br  0  0  0  0  0 15  0  0  0  0  0  0
   -2.0178    0.2972    0.8560 C   0  0  0  0  0  0  0  0  0  0  0  0
   -1.2625    1.1301    0.7615 H   0  0  0  0  0  0  0  0  0  0  0  0
   -1.8708    0.2341    1.9374 H   0  0  0  0  0  0  0  0  0  0  0  0
   -3.3263    0.6378    0.2255 C   0  0  0  0  0  0  0  0  0  0  0  0
   -3.3434    1.7591   -0.1407 H   0  0  0  0  0  0  0  0  0  0  0  0
   -4.0700    0.3857    0.9818 H   0  0  0  0  0  0  0  0  0  0  0  0
   -3.6820   -0.5780   -0.6632 O   0  0  0  0  0  0  0  0  0  0  0  0
  1  8  1  0  0  0  0
  1  3  1  0  0  0  0
  2  1  1  0  0  0  0
  4 14  1  0  0  0  0
  4  1  1  0  0  0  0
  5  4  1  0  0  0  0
  6  4  1  0  0  0  0
  8 10  1  0  0  0  0
  9  8  1  0  0  0  0
 11  8  1  0  0  0  0
 11 13  1  0  0  0  0
 12 11  1  0  0  0  0
 14 11  1  0  0  0  0
M  END
$$$$
Title Card Required
 OpenBabel06272217483D

 14 13  0  0  0  0  0  0  0  0999 V2000
   -1.6237   -1.0868    0.4220 C   0  0  0  0  0  0  0  0  0  0  0  0
   -0.5168   -1.6072    0.3201 H   0  0  0  0  0  0  0  0  0  0  0  0
   -2.2947   -1.6115    1.0994 H   0  0  0  0  0  0  0  0  0  0  0  0
   -2.3819   -1.1914   -0.9816 C   0  0  0  0  0  0  0  0  0  0  0  0
   -2.7883   -2.1504   -1.1778 H   0  0  0  0  0  0  0  0  0  0  0  0
   -1.7735   -0.8347   -1.8596 H   0  0  0  0  0  0  0  0  0  0  0  0
    2.3913    0.3554    0.0309 Br  0  0  0  0  0 15  0  0  0  0  0  0
   -2.0004    0.3109    0.8512 C   0  0  0  0  0  0  0  0  0  0  0  0
   -1.3130    1.1685    0.7789 H   0  0  0  0  0  0  0  0  0  0  0  0
   -1.8865    0.1407    1.9780 H   0  0  0  0  0  0  0  0  0  0  0  0
   -3.3224    0.6083    0.2195 C   0  0  0  0  0  0  0  0  0  0  0  0
   -3.3175    1.7071   -0.1425 H   0  0  0  0  0  0  0  0  0  0  0  0
   -4.0741    0.4131    0.9564 H   0  0  0  0  0  0  0  0  0  0  0  0
   -3.6681   -0.5592   -0.6587 O   0  0  0  0  0  0  0  0  0  0  0  0
  1  8  1  0  0  0  0
  1  3  1  0  0  0  0
  2  1  1  0  0  0  0
  4 14  1  0  0  0  0
  4  1  1  0  0  0  0
  5  4  1  0  0  0  0
  6  4  1  0  0  0  0
  8 10  1  0  0  0  0
  9  8  1  0  0  0  0
 11  8  1  0  0  0  0
 11 13  1  0  0  0  0
 12 11  1  0  0  0  0
 14 11  1  0  0  0  0
M  END
$$$$
Title Card Required
 OpenBabel06272217483D

 14 13  0  0  0  0  0  0  0  0999 V2000
   -1.6291   -1.0917    0.4207 C   0  0  0  0  0  0  0  0  0  0  0  0
   -0.5362   -1.6262    0.2909 H   0  0  0  0  0  0  0  0  0  0  0  0
   -2.2775   -1.5641    1.1554 H   0  0  0  0  0  0  0  0  0  0  0  0
   -2.3776   -1.1985   -0.9738 C   0  0  0  0  0  0  0  0  0  0  0  0
   -2.8325   -2.1024   -1.1937 H   0  0  0  0  0  0  0  0  0  0  0  0
   -1.7428   -0.8186   -1.8985 H   0  0  0  0  0  0  0  0  0  0  0  0
    2.3857    0.3554    0.0305 Br  0  0  0  0  0 15  0  0  0  0  0  0
   -1.9799    0.3254    0.8488 C   0  0  0  0  0  0  0  0  0  0  0  0
   -1.3583    1.2020    0.7856 H   0  0  0  0  0  0  0  0  0  0  0  0
   -1.9170    0.0554    2.0098 H   0  0  0  0  0  0  0  0  0  0  0  0
   -3.3195    0.5773    0.2133 C   0  0  0  0  0  0  0  0  0  0  0  0
   -3.2963    1.6332   -0.1482 H   0  0  0  0  0  0  0  0  0  0  0  0
   -4.0899    0.4515    0.9391 H   0  0  0  0  0  0  0  0  0  0  0  0
   -3.6520   -0.5380   -0.6546 O   0  0  0  0  0  0  0  0  0  0  0  0
  1  8  1  0  0  0  0
  1  3  1  0  0  0  0
  2  1  1  0  0  0  0
  4 14  1  0  0  0  0
  4  1  1  0  0  0  0
  5  4  1  0  0  0  0
  6  4  1  0  0  0  0
  8 10  1  0  0  0  0
  9  8  1  0  0  0  0
 11  8  1  0  0  0  0
 11 13  1  0  0  0  0
 12 11  1  0  0  0  0
 14 11  1  0  0  0  0
M  END
$$$$
Title Card Required
 OpenBabel06272217483D

 14 13  0  0  0  0  0  0  0  0999 V2000
   -1.6330   -1.0985    0.4159 C   0  0  0  0  0  0  0  0  0  0  0  0
   -0.5836   -1.6204    0.2719 H   0  0  0  0  0  0  0  0  0  0  0  0
   -2.2576   -1.5329    1.2094 H   0  0  0  0  0  0  0  0  0  0  0  0
   -2.3732   -1.2035   -0.9649 C   0  0  0  0  0  0  0  0  0  0  0  0
   -2.8758   -2.0866   -1.2184 H   0  0  0  0  0  0  0  0  0  0  0  0
   -1.7269   -0.8041   -1.9167 H   0  0  0  0  0  0  0  0  0  0  0  0
    2.3800    0.3553    0.0301 Br  0  0  0  0  0 15  0  0  0  0  0  0
   -1.9574    0.3393    0.8499 C   0  0  0  0  0  0  0  0  0  0  0  0
   -1.3908    1.2367    0.7831 H   0  0  0  0  0  0  0  0  0  0  0  0
   -1.9591   -0.0123    2.0205 H   0  0  0  0  0  0  0  0  0  0  0  0
   -3.3174    0.5448    0.2072 C   0  0  0  0  0  0  0  0  0  0  0  0
   -3.2801    1.5493   -0.1633 H   0  0  0  0  0  0  0  0  0  0  0  0
   -4.1180    0.4988    0.9329 H   0  0  0  0  0  0  0  0  0  0  0  0
   -3.6338   -0.5148   -0.6509 O   0  0  0  0  0  0  0  0  0  0  0  0
  1  8  1  0  0  0  0
  1  3  1  0  0  0  0
  2  1  1  0  0  0  0
  4 14  1  0  0  0  0
  4  1  1  0  0  0  0
  5  4  1  0  0  0  0
  6  4  1  0  0  0  0
  8 10  1  0  0  0  0
  9  8  1  0  0  0  0
 11  8  1  0  0  0  0
 11 13  1  0  0  0  0
 12 11  1  0  0  0  0
 14 11  1  0  0  0  0
M  END
$$$$
Title Card Required
 OpenBabel06272217483D

 14 13  0  0  0  0  0  0  0  0999 V2000
   -1.6357   -1.1068    0.4083 C   0  0  0  0  0  0  0  0  0  0  0  0
   -0.6498   -1.5932    0.2639 H   0  0  0  0  0  0  0  0  0  0  0  0
   -2.2340   -1.5200    1.2539 H   0  0  0  0  0  0  0  0  0  0  0  0
   -2.3688   -1.2064   -0.9557 C   0  0  0  0  0  0  0  0  0  0  0  0
   -2.9140   -2.1010   -1.2505 H   0  0  0  0  0  0  0  0  0  0  0  0
   -1.7295   -0.7949   -1.9067 H   0  0  0  0  0  0  0  0  0  0  0  0
    2.3742    0.3553    0.0298 Br  0  0  0  0  0 15  0  0  0  0  0  0
   -1.9346    0.3510    0.8550 C   0  0  0  0  0  0  0  0  0  0  0  0
   -1.4049    1.2757    0.7735 H   0  0  0  0  0  0  0  0  0  0  0  0
   -2.0069   -0.0522    2.0046 H   0  0  0  0  0  0  0  0  0  0  0  0
   -3.3161    0.5115    0.2027 C   0  0  0  0  0  0  0  0  0  0  0  0
   -3.2687    1.4746   -0.1944 H   0  0  0  0  0  0  0  0  0  0  0  0
   -4.1525    0.5518    0.9349 H   0  0  0  0  0  0  0  0  0  0  0  0
   -3.6139   -0.4906   -0.6481 O   0  0  0  0  0  0  0  0  0  0  0  0
  1  8  1  0  0  0  0
  1  3  1  0  0  0  0
  2  1  1  0  0  0  0
  4 14  1  0  0  0  0
  4  1  1  0  0  0  0
  5  4  1  0  0  0  0
  6  4  1  0  0  0  0
  8 10  1  0  0  0  0
  9  8  1  0  0  0  0
 11  8  1  0  0  0  0
 11 13  1  0  0  0  0
 12 11  1  0  0  0  0
 14 11  1  0  0  0  0
M  END
$$$$
Title Card Required
 OpenBabel06272217483D

 14 13  0  0  0  0  0  0  0  0999 V2000
   -1.6385   -1.1158    0.3986 C   0  0  0  0  0  0  0  0  0  0  0  0
   -0.7139   -1.5544    0.2651 H   0  0  0  0  0  0  0  0  0  0  0  0
   -2.2051   -1.5252    1.2819 H   0  0  0  0  0  0  0  0  0  0  0  0
   -2.3656   -1.2082   -0.9470 C   0  0  0  0  0  0  0  0  0  0  0  0
   -2.9384   -2.1308   -1.2848 H   0  0  0  0  0  0  0  0  0  0  0  0
   -1.7498   -0.7921   -1.8670 H   0  0  0  0  0  0  0  0  0  0  0  0
    2.3683    0.3552    0.0294 Br  0  0  0  0  0 15  0  0  0  0  0  0
   -1.9126    0.3598    0.8639 C   0  0  0  0  0  0  0  0  0  0  0  0
   -1.4007    1.3168    0.7589 H   0  0  0  0  0  0  0  0  0  0  0  0
   -2.0547   -0.0574    1.9631 H   0  0  0  0  0  0  0  0  0  0  0  0
   -3.3156    0.4784    0.2016 C   0  0  0  0  0  0  0  0  0  0  0  0
   -3.2605    1.4242   -0.2463 H   0  0  0  0  0  0  0  0  0  0  0  0
   -4.1845    0.6066    0.9384 H   0  0  0  0  0  0  0  0  0  0  0  0
   -3.5927   -0.4668   -0.6469 O   0  0  0  0  0  0  0  0  0  0  0  0
  1  8  1  0  0  0  0
  1  3  1  0  0  0  0
  2  1  1  0  0  0  0
  4 14  1  0  0  0  0
  4  1  1  0  0  0  0
  5  4  1  0  0  0  0
  6  4  1  0  0  0  0
  8 10  1  0  0  0  0
  9  8  1  0  0  0  0
 11  8  1  0  0  0  0
 11 13  1  0  0  0  0
 12 11  1  0  0  0  0
 14 11  1  0  0  0  0
M  END
$$$$
Title Card Required
 OpenBabel06272217483D

 14 13  0  0  0  0  0  0  0  0999 V2000
   -1.6438   -1.1243    0.3879 C   0  0  0  0  0  0  0  0  0  0  0  0
   -0.7417   -1.5193    0.2712 H   0  0  0  0  0  0  0  0  0  0  0  0
   -2.1696   -1.5486    1.2881 H   0  0  0  0  0  0  0  0  0  0  0  0
   -2.3647   -1.2103   -0.9389 C   0  0  0  0  0  0  0  0  0  0  0  0
   -2.9401   -2.1611   -1.3154 H   0  0  0  0  0  0  0  0  0  0  0  0
   -1.7842   -0.7943   -1.8013 H   0  0  0  0  0  0  0  0  0  0  0  0
    2.3621    0.3551    0.0290 Br  0  0  0  0  0 15  0  0  0  0  0  0
   -1.8915    0.3656    0.8761 C   0  0  0  0  0  0  0  0  0  0  0  0
   -1.3818    1.3514    0.7412 H   0  0  0  0  0  0  0  0  0  0  0  0
   -2.0980   -0.0245    1.9025 H   0  0  0  0  0  0  0  0  0  0  0  0
   -3.3156    0.4477    0.2053 C   0  0  0  0  0  0  0  0  0  0  0  0
   -3.2541    1.4000   -0.3173 H   0  0  0  0  0  0  0  0  0  0  0  0
   -4.2059    0.6591    0.9369 H   0  0  0  0  0  0  0  0  0  0  0  0
   -3.5702   -0.4446   -0.6484 O   0  0  0  0  0  0  0  0  0  0  0  0
  1  8  1  0  0  0  0
  1  3  1  0  0  0  0
  2  1  1  0  0  0  0
  4 14  1  0  0  0  0
  4  1  1  0  0  0  0
  5  4  1  0  0  0  0
  6  4  1  0  0  0  0
  8 10  1  0  0  0  0
  9  8  1  0  0  0  0
 11  8  1  0  0  0  0
 11 13  1  0  0  0  0
 12 11  1  0  0  0  0
 14 11  1  0  0  0  0
M  END
$$$$
Title Card Required
 OpenBabel06272217483D

 14 13  0  0  0  0  0  0  0  0999 V2000
   -1.6531   -1.1311    0.3772 C   0  0  0  0  0  0  0  0  0  0  0  0
   -0.7023   -1.5004    0.2778 H   0  0  0  0  0  0  0  0  0  0  0  0
   -2.1292   -1.5904    1.2703 H   0  0  0  0  0  0  0  0  0  0  0  0
   -2.3680   -1.2139   -0.9310 C   0  0  0  0  0  0  0  0  0  0  0  0
   -2.9123   -2.1802   -1.3356 H   0  0  0  0  0  0  0  0  0  0  0  0
   -1.8216   -0.7952   -1.7243 H   0  0  0  0  0  0  0  0  0  0  0  0
    2.3556    0.3550    0.0286 Br  0  0  0  0  0 15  0  0  0  0  0  0
   -1.8722    0.3691    0.8896 C   0  0  0  0  0  0  0  0  0  0  0  0
   -1.3530    1.3669    0.7227 H   0  0  0  0  0  0  0  0  0  0  0  0
   -2.1336    0.0434    1.8434 H   0  0  0  0  0  0  0  0  0  0  0  0
   -3.3156    0.4248    0.2152 C   0  0  0  0  0  0  0  0  0  0  0  0
   -3.2490    1.3929   -0.3948 H   0  0  0  0  0  0  0  0  0  0  0  0
   -4.2099    0.7024    0.9257 H   0  0  0  0  0  0  0  0  0  0  0  0
   -3.5471   -0.4265   -0.6542 O   0  0  0  0  0  0  0  0  0  0  0  0
  1  8  1  0  0  0  0
  1  3  1  0  0  0  0
  2  1  1  0  0  0  0
  4 14  1  0  0  0  0
  4  1  1  0  0  0  0
  5  4  1  0  0  0  0
  6  4  1  0  0  0  0
  8 10  1  0  0  0  0
  9  8  1  0  0  0  0
 11  8  1  0  0  0  0
 11 13  1  0  0  0  0
 12 11  1  0  0  0  0
 14 11  1  0  0  0  0
M  END
$$$$
Title Card Required
 OpenBabel06272217483D

 14 13  0  0  0  0  0  0  0  0999 V2000
   -1.6637   -1.1362    0.3672 C   0  0  0  0  0  0  0  0  0  0  0  0
   -0.6114   -1.4903    0.2846 H   0  0  0  0  0  0  0  0  0  0  0  0
   -2.0886   -1.6497    1.2332 H   0  0  0  0  0  0  0  0  0  0  0  0
   -2.3769   -1.2204   -0.9219 C   0  0  0  0  0  0  0  0  0  0  0  0
   -2.8539   -2.1827   -1.3409 H   0  0  0  0  0  0  0  0  0  0  0  0
   -1.8411   -0.7814   -1.6652 H   0  0  0  0  0  0  0  0  0  0  0  0
    2.3487    0.3549    0.0281 Br  0  0  0  0  0 15  0  0  0  0  0  0
   -1.8548    0.3708    0.9004 C   0  0  0  0  0  0  0  0  0  0  0  0
   -1.3187    1.3525    0.7059 H   0  0  0  0  0  0  0  0  0  0  0  0
   -2.1641    0.1333    1.8256 H   0  0  0  0  0  0  0  0  0  0  0  0
   -3.3147    0.4149    0.2313 C   0  0  0  0  0  0  0  0  0  0  0  0
   -3.2448    1.3911   -0.4595 H   0  0  0  0  0  0  0  0  0  0  0  0
   -4.1940    0.7296    0.9040 H   0  0  0  0  0  0  0  0  0  0  0  0
   -3.5245   -0.4151   -0.6655 O   0  0  0  0  0  0  0  0  0  0  0  0
  1  8  1  0  0  0  0
  1  3  1  0  0  0  0
  2  1  1  0  0  0  0
  4 14  1  0  0  0  0
  4  1  1  0  0  0  0
  5  4  1  0  0  0  0
  6  4  1  0  0  0  0
  8 10  1  0  0  0  0
  9  8  1  0  0  0  0
 11  8  1  0  0  0  0
 11 13  1  0  0  0  0
 12 11  1  0  0  0  0
 14 11  1  0  0  0  0
M  END
$$$$
Title Card Required
 OpenBabel06272217483D

 14 13  0  0  0  0  0  0  0  0999 V2000
   -1.6697   -1.1405    0.3593 C   0  0  0  0  0  0  0  0  0  0  0  0
   -0.5242   -1.4731    0.2917 H   0  0  0  0  0  0  0  0  0  0  0  0
   -2.0563   -1.7204    1.1891 H   0  0  0  0  0  0  0  0  0  0  0  0
   -2.3908   -1.2293   -0.9113 C   0  0  0  0  0  0  0  0  0  0  0  0
   -2.7767   -2.1735   -1.3316 H   0  0  0  0  0  0  0  0  0  0  0  0
   -1.8275   -0.7454   -1.6477 H   0  0  0  0  0  0  0  0  0  0  0  0
    2.3420    0.3548    0.0277 Br  0  0  0  0  0 15  0  0  0  0  0  0
   -1.8409    0.3707    0.9055 C   0  0  0  0  0  0  0  0  0  0  0  0
   -1.2825    1.3091    0.6915 H   0  0  0  0  0  0  0  0  0  0  0  0
   -2.1911    0.2263    1.8752 H   0  0  0  0  0  0  0  0  0  0  0  0
   -3.3119    0.4204    0.2507 C   0  0  0  0  0  0  0  0  0  0  0  0
   -3.2419    1.3887   -0.4927 H   0  0  0  0  0  0  0  0  0  0  0  0
   -4.1654    0.7371    0.8786 H   0  0  0  0  0  0  0  0  0  0  0  0
   -3.5048   -0.4116   -0.6817 O   0  0  0  0  0  0  0  0  0  0  0  0
  1  8  1  0  0  0  0
  1  3  1  0  0  0  0
  2  1  1  0  0  0  0
  4 14  1  0  0  0  0
  4  1  1  0  0  0  0
  5  4  1  0  0  0  0
  6  4  1  0  0  0  0
  8 10  1  0  0  0  0
  9  8  1  0  0  0  0
 11 13  1  0  0  0  0
 11  8  1  0  0  0  0
 12 11  1  0  0  0  0
 14 11  1  0  0  0  0
M  END
$$$$
Title Card Required
 OpenBabel06272217483D

 14 13  0  0  0  0  0  0  0  0999 V2000
   -1.6687   -1.1442    0.3542 C   0  0  0  0  0  0  0  0  0  0  0  0
   -0.4731   -1.4434    0.2973 H   0  0  0  0  0  0  0  0  0  0  0  0
   -2.0344   -1.7955    1.1476 H   0  0  0  0  0  0  0  0  0  0  0  0
   -2.4057   -1.2379   -0.9011 C   0  0  0  0  0  0  0  0  0  0  0  0
   -2.6977   -2.1684   -1.3158 H   0  0  0  0  0  0  0  0  0  0  0  0
   -1.7932   -0.7005   -1.6569 H   0  0  0  0  0  0  0  0  0  0  0  0
    2.3356    0.3546    0.0273 Br  0  0  0  0  0 15  0  0  0  0  0  0
   -1.8316    0.3680    0.9071 C   0  0  0  0  0  0  0  0  0  0  0  0
   -1.2431    1.2501    0.6771 H   0  0  0  0  0  0  0  0  0  0  0  0
   -2.2062    0.3170    1.9602 H   0  0  0  0  0  0  0  0  0  0  0  0
   -3.3065    0.4378    0.2694 C   0  0  0  0  0  0  0  0  0  0  0  0
   -3.2404    1.3846   -0.4908 H   0  0  0  0  0  0  0  0  0  0  0  0
   -4.1393    0.7298    0.8605 H   0  0  0  0  0  0  0  0  0  0  0  0
   -3.4889   -0.4142   -0.7003 O   0  0  0  0  0  0  0  0  0  0  0  0
  1  8  1  0  0  0  0
  1  3  1  0  0  0  0
  2  1  1  0  0  0  0
  4 14  1  0  0  0  0
  4  1  1  0  0  0  0
  5  4  1  0  0  0  0
  6  4  1  0  0  0  0
  8 10  1  0  0  0  0
  9  8  1  0  0  0  0
 11 13  1  0  0  0  0
 11  8  1  0  0  0  0
 12 11  1  0  0  0  0
 14 11  1  0  0  0  0
M  END
$$$$
Title Card Required
 OpenBabel06272217483D

 14 13  0  0  0  0  0  0  0  0999 V2000
   -1.6609   -1.1479    0.3522 C   0  0  0  0  0  0  0  0  0  0  0  0
   -0.4614   -1.4020    0.3000 H   0  0  0  0  0  0  0  0  0  0  0  0
   -2.0196   -1.8718    1.1090 H   0  0  0  0  0  0  0  0  0  0  0  0
   -2.4189   -1.2438   -0.8925 C   0  0  0  0  0  0  0  0  0  0  0  0
   -2.6249   -2.1826   -1.3016 H   0  0  0  0  0  0  0  0  0  0  0  0
   -1.7554   -0.6627   -1.6703 H   0  0  0  0  0  0  0  0  0  0  0  0
    2.3294    0.3545    0.0269 Br  0  0  0  0  0 15  0  0  0  0  0  0
   -1.8277    0.3619    0.9086 C   0  0  0  0  0  0  0  0  0  0  0  0
   -1.1946    1.1864    0.6589 H   0  0  0  0  0  0  0  0  0  0  0  0
   -2.2001    0.4069    2.0427 H   0  0  0  0  0  0  0  0  0  0  0  0
   -3.2977    0.4637    0.2851 C   0  0  0  0  0  0  0  0  0  0  0  0
   -3.2402    1.3791   -0.4574 H   0  0  0  0  0  0  0  0  0  0  0  0
   -4.1295    0.7136    0.8596 H   0  0  0  0  0  0  0  0  0  0  0  0
   -3.4763   -0.4208   -0.7202 O   0  0  0  0  0  0  0  0  0  0  0  0
  1  8  1  0  0  0  0
  1  3  1  0  0  0  0
  2  1  1  0  0  0  0
  4 14  1  0  0  0  0
  4  1  1  0  0  0  0
  5  4  1  0  0  0  0
  6  4  1  0  0  0  0
  8 10  1  0  0  0  0
  9  8  1  0  0  0  0
 11 13  1  0  0  0  0
 11  8  1  0  0  0  0
 12 11  1  0  0  0  0
 14 11  1  0  0  0  0
M  END
$$$$
Title Card Required
 OpenBabel06272217483D

 14 13  0  0  0  0  0  0  0  0999 V2000
   -1.6475   -1.1517    0.3536 C   0  0  0  0  0  0  0  0  0  0  0  0
   -0.4848   -1.3528    0.2987 H   0  0  0  0  0  0  0  0  0  0  0  0
   -2.0085   -1.9414    1.0723 H   0  0  0  0  0  0  0  0  0  0  0  0
   -2.4280   -1.2456   -0.8865 C   0  0  0  0  0  0  0  0  0  0  0  0
   -2.5635   -2.2202   -1.2929 H   0  0  0  0  0  0  0  0  0  0  0  0
   -1.7253   -0.6428   -1.6757 H   0  0  0  0  0  0  0  0  0  0  0  0
    2.3233    0.3543    0.0266 Br  0  0  0  0  0 15  0  0  0  0  0  0
   -1.8295    0.3526    0.9122 C   0  0  0  0  0  0  0  0  0  0  0  0
   -1.1357    1.1257    0.6351 H   0  0  0  0  0  0  0  0  0  0  0  0
   -2.1693    0.4900    2.0990 H   0  0  0  0  0  0  0  0  0  0  0  0
   -3.2853    0.4947    0.2962 C   0  0  0  0  0  0  0  0  0  0  0  0
   -3.2410    1.3752   -0.3998 H   0  0  0  0  0  0  0  0  0  0  0  0
   -4.1420    0.6916    0.8801 H   0  0  0  0  0  0  0  0  0  0  0  0
   -3.4672   -0.4295   -0.7398 O   0  0  0  0  0  0  0  0  0  0  0  0
  1  8  1  0  0  0  0
  1  3  1  0  0  0  0
  2  1  1  0  0  0  0
  4 14  1  0  0  0  0
  4  1  1  0  0  0  0
  5  4  1  0  0  0  0
  6  4  1  0  0  0  0
  8 10  1  0  0  0  0
  9  8  1  0  0  0  0
 11 13  1  0  0  0  0
 11  8  1  0  0  0  0
 12 11  1  0  0  0  0
 14 11  1  0  0  0  0
M  END
$$$$
Title Card Required
 OpenBabel06272217483D

 14 13  0  0  0  0  0  0  0  0999 V2000
   -1.6307   -1.1558    0.3585 C   0  0  0  0  0  0  0  0  0  0  0  0
   -0.5302   -1.3016    0.2927 H   0  0  0  0  0  0  0  0  0  0  0  0
   -1.9978   -1.9979    1.0370 H   0  0  0  0  0  0  0  0  0  0  0  0
   -2.4319   -1.2443   -0.8835 C   0  0  0  0  0  0  0  0  0  0  0  0
   -2.5144   -2.2697   -1.2869 H   0  0  0  0  0  0  0  0  0  0  0  0
   -1.7069   -0.6434   -1.6705 H   0  0  0  0  0  0  0  0  0  0  0  0
    2.3174    0.3542    0.0262 Br  0  0  0  0  0 15  0  0  0  0  0  0
   -1.8360    0.3412    0.9180 C   0  0  0  0  0  0  0  0  0  0  0  0
   -1.0715    1.0683    0.6070 H   0  0  0  0  0  0  0  0  0  0  0  0
   -2.1177    0.5602    2.1215 H   0  0  0  0  0  0  0  0  0  0  0  0
   -3.2707    0.5274    0.3033 C   0  0  0  0  0  0  0  0  0  0  0  0
   -3.2425    1.3801   -0.3314 H   0  0  0  0  0  0  0  0  0  0  0  0
   -4.1681    0.6635    0.9156 H   0  0  0  0  0  0  0  0  0  0  0  0
   -3.4617   -0.4384   -0.7579 O   0  0  0  0  0  0  0  0  0  0  0  0
  1  8  1  0  0  0  0
  1  3  1  0  0  0  0
  2  1  1  0  0  0  0
  4 14  1  0  0  0  0
  4  1  1  0  0  0  0
  5  4  1  0  0  0  0
  6  4  1  0  0  0  0
  8 10  1  0  0  0  0
  9  8  1  0  0  0  0
 11 13  1  0  0  0  0
 11  8  1  0  0  0  0
 12 11  1  0  0  0  0
 14 11  1  0  0  0  0
M  END
$$$$
Title Card Required
 OpenBabel06272217483D

 14 13  0  0  0  0  0  0  0  0999 V2000
   -1.6128   -1.1604    0.3665 C   0  0  0  0  0  0  0  0  0  0  0  0
   -0.5780   -1.2518    0.2812 H   0  0  0  0  0  0  0  0  0  0  0  0
   -1.9846   -2.0398    1.0021 H   0  0  0  0  0  0  0  0  0  0  0  0
   -2.4301   -1.2415   -0.8836 C   0  0  0  0  0  0  0  0  0  0  0  0
   -2.4756   -2.3168   -1.2784 H   0  0  0  0  0  0  0  0  0  0  0  0
   -1.7000   -0.6636   -1.6557 H   0  0  0  0  0  0  0  0  0  0  0  0
    2.3116    0.3540    0.0259 Br  0  0  0  0  0 15  0  0  0  0  0  0
   -1.8456    0.3287    0.9261 C   0  0  0  0  0  0  0  0  0  0  0  0
   -1.0086    1.0079    0.5766 H   0  0  0  0  0  0  0  0  0  0  0  0
   -2.0494    0.6160    2.1116 H   0  0  0  0  0  0  0  0  0  0  0  0
   -3.2552    0.5601    0.3082 C   0  0  0  0  0  0  0  0  0  0  0  0
   -3.2446    1.4063   -0.2656 H   0  0  0  0  0  0  0  0  0  0  0  0
   -4.1932    0.6281    0.9564 H   0  0  0  0  0  0  0  0  0  0  0  0
   -3.4595   -0.4469   -0.7746 O   0  0  0  0  0  0  0  0  0  0  0  0
  1  8  1  0  0  0  0
  1  3  1  0  0  0  0
  2  1  1  0  0  0  0
  4 14  1  0  0  0  0
  4  1  1  0  0  0  0
  5  4  1  0  0  0  0
  6  4  1  0  0  0  0
  8 10  1  0  0  0  0
  9  8  1  0  0  0  0
 11  8  1  0  0  0  0
 11 13  1  0  0  0  0
 12 11  1  0  0  0  0
 14 11  1  0  0  0  0
M  END
$$$$
Title Card Required
 OpenBabel06272217483D

 14 13  0  0  0  0  0  0  0  0999 V2000
   -1.5962   -1.1655    0.3778 C   0  0  0  0  0  0  0  0  0  0  0  0
   -0.6016   -1.2067    0.2624 H   0  0  0  0  0  0  0  0  0  0  0  0
   -1.9666   -2.0667    0.9684 H   0  0  0  0  0  0  0  0  0  0  0  0
   -2.4220   -1.2384   -0.8866 C   0  0  0  0  0  0  0  0  0  0  0  0
   -2.4470   -2.3507   -1.2635 H   0  0  0  0  0  0  0  0  0  0  0  0
   -1.7035   -0.7017   -1.6337 H   0  0  0  0  0  0  0  0  0  0  0  0
    2.3057    0.3539    0.0255 Br  0  0  0  0  0 15  0  0  0  0  0  0
   -1.8571    0.3156    0.9359 C   0  0  0  0  0  0  0  0  0  0  0  0
   -0.9548    0.9389    0.5460 H   0  0  0  0  0  0  0  0  0  0  0  0
   -1.9677    0.6560    2.0716 H   0  0  0  0  0  0  0  0  0  0  0  0
   -3.2399    0.5913    0.3125 C   0  0  0  0  0  0  0  0  0  0  0  0
   -3.2477    1.4667   -0.2134 H   0  0  0  0  0  0  0  0  0  0  0  0
   -4.2045    0.5855    0.9939 H   0  0  0  0  0  0  0  0  0  0  0  0
   -3.4605   -0.4541   -0.7900 O   0  0  0  0  0  0  0  0  0  0  0  0
  1  8  1  0  0  0  0
  1  3  1  0  0  0  0
  2  1  1  0  0  0  0
  4 14  1  0  0  0  0
  4  1  1  0  0  0  0
  5  4  1  0  0  0  0
  6  4  1  0  0  0  0
  8 10  1  0  0  0  0
  9  8  1  0  0  0  0
 11  8  1  0  0  0  0
 11 13  1  0  0  0  0
 12 11  1  0  0  0  0
 14 11  1  0  0  0  0
M  END
$$$$
Title Card Required
 OpenBabel06272217483D

 14 13  0  0  0  0  0  0  0  0999 V2000
   -1.5837   -1.1707    0.3917 C   0  0  0  0  0  0  0  0  0  0  0  0
   -0.5800   -1.1696    0.2353 H   0  0  0  0  0  0  0  0  0  0  0  0
   -1.9431   -2.0792    0.9394 H   0  0  0  0  0  0  0  0  0  0  0  0
   -2.4081   -1.2360   -0.8921 C   0  0  0  0  0  0  0  0  0  0  0  0
   -2.4304   -2.3642   -1.2412 H   0  0  0  0  0  0  0  0  0  0  0  0
   -1.7132   -0.7518   -1.6103 H   0  0  0  0  0  0  0  0  0  0  0  0
    2.2998    0.3537    0.0252 Br  0  0  0  0  0 15  0  0  0  0  0  0
   -1.8686    0.3028    0.9463 C   0  0  0  0  0  0  0  0  0  0  0  0
   -0.9194    0.8624    0.5185 H   0  0  0  0  0  0  0  0  0  0  0  0
   -1.8806    0.6781    2.0112 H   0  0  0  0  0  0  0  0  0  0  0  0
   -3.2261    0.6189    0.3168 C   0  0  0  0  0  0  0  0  0  0  0  0
   -3.2523    1.5577   -0.1779 H   0  0  0  0  0  0  0  0  0  0  0  0
   -4.1937    0.5402    1.0202 H   0  0  0  0  0  0  0  0  0  0  0  0
   -3.4645   -0.4593   -0.8034 O   0  0  0  0  0  0  0  0  0  0  0  0
  1  3  1  0  0  0  0
  1  8  1  0  0  0  0
  2  1  1  0  0  0  0
  4 14  1  0  0  0  0
  4  1  1  0  0  0  0
  5  4  1  0  0  0  0
  6  4  1  0  0  0  0
  8 10  1  0  0  0  0
  9  8  1  0  0  0  0
 11  8  1  0  0  0  0
 11 13  1  0  0  0  0
 12 11  1  0  0  0  0
 14 11  1  0  0  0  0
M  END
$$$$
Title Card Required
 OpenBabel06272217483D

 14 13  0  0  0  0  0  0  0  0999 V2000
   -1.5749   -1.1759    0.4072 C   0  0  0  0  0  0  0  0  0  0  0  0
   -0.5225   -1.1403    0.2027 H   0  0  0  0  0  0  0  0  0  0  0  0
   -1.9150   -2.0822    0.9190 H   0  0  0  0  0  0  0  0  0  0  0  0
   -2.3898   -1.2349   -0.8986 C   0  0  0  0  0  0  0  0  0  0  0  0
   -2.4257   -2.3573   -1.2126 H   0  0  0  0  0  0  0  0  0  0  0  0
   -1.7212   -0.8049   -1.5945 H   0  0  0  0  0  0  0  0  0  0  0  0
    2.2940    0.3535    0.0249 Br  0  0  0  0  0 15  0  0  0  0  0  0
   -1.8788    0.2905    0.9555 C   0  0  0  0  0  0  0  0  0  0  0  0
   -0.9059    0.7821    0.4951 H   0  0  0  0  0  0  0  0  0  0  0  0
   -1.7945    0.6856    1.9472 H   0  0  0  0  0  0  0  0  0  0  0  0
   -3.2143    0.6433    0.3206 C   0  0  0  0  0  0  0  0  0  0  0  0
   -3.2582    1.6594   -0.1509 H   0  0  0  0  0  0  0  0  0  0  0  0
   -4.1600    0.4964    1.0327 H   0  0  0  0  0  0  0  0  0  0  0  0
   -3.4707   -0.4623   -0.8147 O   0  0  0  0  0  0  0  0  0  0  0  0
  1  3  1  0  0  0  0
  1  8  1  0  0  0  0
  2  1  1  0  0  0  0
  4 14  1  0  0  0  0
  4  1  1  0  0  0  0
  5  4  1  0  0  0  0
  6  4  1  0  0  0  0
  8 10  1  0  0  0  0
  9  8  1  0  0  0  0
 11  8  1  0  0  0  0
 11 13  1  0  0  0  0
 12 11  1  0  0  0  0
 14 11  1  0  0  0  0
M  END
$$$$
Title Card Required
 OpenBabel06272217483D

 14 13  0  0  0  0  0  0  0  0999 V2000
   -1.5673   -1.1808    0.4238 C   0  0  0  0  0  0  0  0  0  0  0  0
   -0.4524   -1.1181    0.1692 H   0  0  0  0  0  0  0  0  0  0  0  0
   -1.8830   -2.0827    0.9106 H   0  0  0  0  0  0  0  0  0  0  0  0
   -2.3679   -1.2354   -0.9051 C   0  0  0  0  0  0  0  0  0  0  0  0
   -2.4327   -2.3332   -1.1784 H   0  0  0  0  0  0  0  0  0  0  0  0
   -1.7171   -0.8534   -1.5974 H   0  0  0  0  0  0  0  0  0  0  0  0
    2.2881    0.3534    0.0246 Br  0  0  0  0  0 15  0  0  0  0  0  0
   -1.8875    0.2776    0.9621 C   0  0  0  0  0  0  0  0  0  0  0  0
   -0.9145    0.6993    0.4743 H   0  0  0  0  0  0  0  0  0  0  0  0
   -1.7086    0.6854    1.8967 H   0  0  0  0  0  0  0  0  0  0  0  0
   -3.2043    0.6665    0.3235 C   0  0  0  0  0  0  0  0  0  0  0  0
   -3.2649    1.7550   -0.1223 H   0  0  0  0  0  0  0  0  0  0  0  0
   -4.1041    0.4561    1.0315 H   0  0  0  0  0  0  0  0  0  0  0  0
   -3.4788   -0.4632   -0.8245 O   0  0  0  0  0  0  0  0  0  0  0  0
  1  3  1  0  0  0  0
  1  8  1  0  0  0  0
  2  1  1  0  0  0  0
  4 14  1  0  0  0  0
  4  1  1  0  0  0  0
  5  4  1  0  0  0  0
  6  4  1  0  0  0  0
  8 10  1  0  0  0  0
  9  8  1  0  0  0  0
 11  8  1  0  0  0  0
 11 13  1  0  0  0  0
 12 11  1  0  0  0  0
 14 11  1  0  0  0  0
M  END
$$$$
Title Card Required
 OpenBabel06272217483D

 14 13  0  0  0  0  0  0  0  0999 V2000
   -1.5587   -1.1850    0.4408 C   0  0  0  0  0  0  0  0  0  0  0  0
   -0.3918   -1.1047    0.1414 H   0  0  0  0  0  0  0  0  0  0  0  0
   -1.8483   -2.0882    0.9190 H   0  0  0  0  0  0  0  0  0  0  0  0
   -2.3433   -1.2373   -0.9101 C   0  0  0  0  0  0  0  0  0  0  0  0
   -2.4524   -2.2986   -1.1399 H   0  0  0  0  0  0  0  0  0  0  0  0
   -1.6906   -0.8901   -1.6303 H   0  0  0  0  0  0  0  0  0  0  0  0
    2.2818    0.3532    0.0242 Br  0  0  0  0  0 15  0  0  0  0  0  0
   -1.8944    0.2631    0.9646 C   0  0  0  0  0  0  0  0  0  0  0  0
   -0.9448    0.6178    0.4535 H   0  0  0  0  0  0  0  0  0  0  0  0
   -1.6206    0.6837    1.8765 H   0  0  0  0  0  0  0  0  0  0  0  0
   -3.1956    0.6896    0.3251 C   0  0  0  0  0  0  0  0  0  0  0  0
   -3.2712    1.8299   -0.0858 H   0  0  0  0  0  0  0  0  0  0  0  0
   -4.0298    0.4212    1.0179 H   0  0  0  0  0  0  0  0  0  0  0  0
   -3.4883   -0.4619   -0.8329 O   0  0  0  0  0  0  0  0  0  0  0  0
  1  3  1  0  0  0  0
  1  8  1  0  0  0  0
  2  1  1  0  0  0  0
  4 14  1  0  0  0  0
  4  1  1  0  0  0  0
  5  4  1  0  0  0  0
  6  4  1  0  0  0  0
  8 10  1  0  0  0  0
  9  8  1  0  0  0  0
 11  8  1  0  0  0  0
 11 13  1  0  0  0  0
 12 11  1  0  0  0  0
 14 11  1  0  0  0  0
M  END
$$$$
Title Card Required
 OpenBabel06272217483D

 14 13  0  0  0  0  0  0  0  0999 V2000
   -1.5478   -1.1878    0.4567 C   0  0  0  0  0  0  0  0  0  0  0  0
   -0.3581   -1.1031    0.1269 H   0  0  0  0  0  0  0  0  0  0  0  0
   -1.8128   -2.1036    0.9475 H   0  0  0  0  0  0  0  0  0  0  0  0
   -2.3169   -1.2393   -0.9129 C   0  0  0  0  0  0  0  0  0  0  0  0
   -2.4863   -2.2666   -1.1014 H   0  0  0  0  0  0  0  0  0  0  0  0
   -1.6429   -0.9130   -1.6924 H   0  0  0  0  0  0  0  0  0  0  0  0
    2.2752    0.3530    0.0239 Br  0  0  0  0  0 15  0  0  0  0  0  0
   -1.8993    0.2469    0.9628 C   0  0  0  0  0  0  0  0  0  0  0  0
   -0.9918    0.5474    0.4287 H   0  0  0  0  0  0  0  0  0  0  0  0
   -1.5331    0.6811    1.8891 H   0  0  0  0  0  0  0  0  0  0  0  0
   -3.1880    0.7126    0.3248 C   0  0  0  0  0  0  0  0  0  0  0  0
   -3.2757    1.8707   -0.0395 H   0  0  0  0  0  0  0  0  0  0  0  0
   -3.9504    0.3940    0.9984 H   0  0  0  0  0  0  0  0  0  0  0  0
   -3.4981   -0.4584   -0.8398 O   0  0  0  0  0  0  0  0  0  0  0  0
  1  3  1  0  0  0  0
  1  8  1  0  0  0  0
  2  1  1  0  0  0  0
  4 14  1  0  0  0  0
  4  1  1  0  0  0  0
  5  4  1  0  0  0  0
  6  4  1  0  0  0  0
  8 10  1  0  0  0  0
  9  8  1  0  0  0  0
 11  8  1  0  0  0  0
 11 13  1  0  0  0  0
 12 11  1  0  0  0  0
 14 11  1  0  0  0  0
M  END
$$$$
Title Card Required
 OpenBabel06272217483D

 14 13  0  0  0  0  0  0  0  0999 V2000
   -1.5340   -1.1899    0.4710 C   0  0  0  0  0  0  0  0  0  0  0  0
   -0.3599   -1.1148    0.1315 H   0  0  0  0  0  0  0  0  0  0  0  0
   -1.7761   -2.1262    0.9948 H   0  0  0  0  0  0  0  0  0  0  0  0
   -2.2883   -1.2394   -0.9141 C   0  0  0  0  0  0  0  0  0  0  0  0
   -2.5359   -2.2527   -1.0668 H   0  0  0  0  0  0  0  0  0  0  0  0
   -1.5876   -0.9283   -1.7675 H   0  0  0  0  0  0  0  0  0  0  0  0
    2.2681    0.3528    0.0235 Br  0  0  0  0  0 15  0  0  0  0  0  0
   -1.9018    0.2295    0.9582 C   0  0  0  0  0  0  0  0  0  0  0  0
   -1.0446    0.4984    0.3928 H   0  0  0  0  0  0  0  0  0  0  0  0
   -1.4530    0.6709    1.9180 H   0  0  0  0  0  0  0  0  0  0  0  0
   -3.1800    0.7356    0.3218 C   0  0  0  0  0  0  0  0  0  0  0  0
   -3.2772    1.8709    0.0164 H   0  0  0  0  0  0  0  0  0  0  0  0
   -3.8861    0.3728    0.9859 H   0  0  0  0  0  0  0  0  0  0  0  0
   -3.5074   -0.4524   -0.8452 O   0  0  0  0  0  0  0  0  0  0  0  0
  1  8  1  0  0  0  0
  1  3  1  0  0  0  0
  2  1  1  0  0  0  0
  4 14  1  0  0  0  0
  4  1  1  0  0  0  0
  5  4  1  0  0  0  0
  6  4  1  0  0  0  0
  8 10  1  0  0  0  0
  9  8  1  0  0  0  0
 11  8  1  0  0  0  0
 11 13  1  0  0  0  0
 12 11  1  0  0  0  0
 14 11  1  0  0  0  0
M  END
$$$$
Title Card Required
 OpenBabel06272217483D

 14 13  0  0  0  0  0  0  0  0999 V2000
   -1.5175   -1.1924    0.4834 C   0  0  0  0  0  0  0  0  0  0  0  0
   -0.3989   -1.1401    0.1597 H   0  0  0  0  0  0  0  0  0  0  0  0
   -1.7374   -2.1453    1.0537 H   0  0  0  0  0  0  0  0  0  0  0  0
   -2.2575   -1.2367   -0.9147 C   0  0  0  0  0  0  0  0  0  0  0  0
   -2.5993   -2.2614   -1.0392 H   0  0  0  0  0  0  0  0  0  0  0  0
   -1.5427   -0.9438   -1.8323 H   0  0  0  0  0  0  0  0  0  0  0  0
    2.2605    0.3525    0.0231 Br  0  0  0  0  0 15  0  0  0  0  0  0
   -1.9012    0.2117    0.9528 C   0  0  0  0  0  0  0  0  0  0  0  0
   -1.0877    0.4833    0.3378 H   0  0  0  0  0  0  0  0  0  0  0  0
   -1.3924    0.6445    1.9405 H   0  0  0  0  0  0  0  0  0  0  0  0
   -3.1709    0.7574    0.3158 C   0  0  0  0  0  0  0  0  0  0  0  0
   -3.2747    1.8336    0.0770 H   0  0  0  0  0  0  0  0  0  0  0  0
   -3.8577    0.3550    0.9933 H   0  0  0  0  0  0  0  0  0  0  0  0
   -3.5147   -0.4438   -0.8488 O   0  0  0  0  0  0  0  0  0  0  0  0
  1  8  1  0  0  0  0
  1  3  1  0  0  0  0
  2  1  1  0  0  0  0
  4 14  1  0  0  0  0
  4  1  1  0  0  0  0
  5  4  1  0  0  0  0
  6  4  1  0  0  0  0
  8 10  1  0  0  0  0
  9  8  1  0  0  0  0
 11  8  1  0  0  0  0
 11 13  1  0  0  0  0
 12 11  1  0  0  0  0
 14 11  1  0  0  0  0
M  END
$$$$
Title Card Required
 OpenBabel06272217483D

 14 13  0  0  0  0  0  0  0  0999 V2000
   -1.5000   -1.1969    0.4939 C   0  0  0  0  0  0  0  0  0  0  0  0
   -0.4609   -1.1761    0.2102 H   0  0  0  0  0  0  0  0  0  0  0  0
   -1.6972   -2.1475    1.1131 H   0  0  0  0  0  0  0  0  0  0  0  0
   -2.2259   -1.2323   -0.9159 C   0  0  0  0  0  0  0  0  0  0  0  0
   -2.6663   -2.2771   -1.0196 H   0  0  0  0  0  0  0  0  0  0  0  0
   -1.5219   -0.9645   -1.8666 H   0  0  0  0  0  0  0  0  0  0  0  0
    2.2525    0.3522    0.0227 Br  0  0  0  0  0 15  0  0  0  0  0  0
   -1.8963    0.1948    0.9476 C   0  0  0  0  0  0  0  0  0  0  0  0
   -1.1128    0.5088    0.2641 H   0  0  0  0  0  0  0  0  0  0  0  0
   -1.3621    0.5976    1.9387 H   0  0  0  0  0  0  0  0  0  0  0  0
   -3.1613    0.7738    0.3083 C   0  0  0  0  0  0  0  0  0  0  0  0
   -3.2692    1.7853    0.1309 H   0  0  0  0  0  0  0  0  0  0  0  0
   -3.8688    0.3451    1.0185 H   0  0  0  0  0  0  0  0  0  0  0  0
   -3.5187   -0.4323   -0.8505 O   0  0  0  0  0  0  0  0  0  0  0  0
  1  8  1  0  0  0  0
  1  3  1  0  0  0  0
  2  1  1  0  0  0  0
  4 14  1  0  0  0  0
  4  1  1  0  0  0  0
  5  4  1  0  0  0  0
  6  4  1  0  0  0  0
  8 10  1  0  0  0  0
  9  8  1  0  0  0  0
 11  8  1  0  0  0  0
 11 13  1  0  0  0  0
 12 11  1  0  0  0  0
 14 11  1  0  0  0  0
M  END
$$$$
Title Card Required
 OpenBabel06272217483D

 14 13  0  0  0  0  0  0  0  0999 V2000
   -1.4847   -1.2048    0.5036 C   0  0  0  0  0  0  0  0  0  0  0  0
   -0.5035   -1.2191    0.2749 H   0  0  0  0  0  0  0  0  0  0  0  0
   -1.6578   -2.1232    1.1652 H   0  0  0  0  0  0  0  0  0  0  0  0
   -2.1950   -1.2284   -0.9181 C   0  0  0  0  0  0  0  0  0  0  0  0
   -2.7226   -2.2759   -1.0084 H   0  0  0  0  0  0  0  0  0  0  0  0
   -1.5306   -0.9923   -1.8589 H   0  0  0  0  0  0  0  0  0  0  0  0
    2.2438    0.3519    0.0223 Br  0  0  0  0  0 15  0  0  0  0  0  0
   -1.8846    0.1801    0.9413 C   0  0  0  0  0  0  0  0  0  0  0  0
   -1.1275    0.5726    0.1841 H   0  0  0  0  0  0  0  0  0  0  0  0
   -1.3678    0.5301    1.9048 H   0  0  0  0  0  0  0  0  0  0  0  0
   -3.1524    0.7782    0.3024 C   0  0  0  0  0  0  0  0  0  0  0  0
   -3.2636    1.7772    0.1643 H   0  0  0  0  0  0  0  0  0  0  0  0
   -3.9061    0.3558    1.0448 H   0  0  0  0  0  0  0  0  0  0  0  0
   -3.5180   -0.4169   -0.8500 O   0  0  0  0  0  0  0  0  0  0  0  0
  1  8  1  0  0  0  0
  1  3  1  0  0  0  0
  2  1  1  0  0  0  0
  4 14  1  0  0  0  0
  4  1  1  0  0  0  0
  5  4  1  0  0  0  0
  6  4  1  0  0  0  0
  8 10  1  0  0  0  0
  9  8  1  0  0  0  0
 11  8  1  0  0  0  0
 11 13  1  0  0  0  0
 12 11  1  0  0  0  0
 14 11  1  0  0  0  0
M  END
$$$$
Title Card Required
 OpenBabel06272217483D

 14 13  0  0  0  0  0  0  0  0999 V2000
   -1.4775   -1.2150    0.5120 C   0  0  0  0  0  0  0  0  0  0  0  0
   -0.4691   -1.2586    0.3317 H   0  0  0  0  0  0  0  0  0  0  0  0
   -1.6303   -2.0784    1.2018 H   0  0  0  0  0  0  0  0  0  0  0  0
   -2.1707   -1.2276   -0.9201 C   0  0  0  0  0  0  0  0  0  0  0  0
   -2.7488   -2.2448   -1.0071 H   0  0  0  0  0  0  0  0  0  0  0  0
   -1.5602   -1.0199   -1.8162 H   0  0  0  0  0  0  0  0  0  0  0  0
    2.2352    0.3515    0.0219 Br  0  0  0  0  0 15  0  0  0  0  0  0
   -1.8668    0.1704    0.9317 C   0  0  0  0  0  0  0  0  0  0  0  0
   -1.1431    0.6512    0.1290 H   0  0  0  0  0  0  0  0  0  0  0  0
   -1.4018    0.4600    1.8556 H   0  0  0  0  0  0  0  0  0  0  0  0
   -3.1471    0.7667    0.3008 C   0  0  0  0  0  0  0  0  0  0  0  0
   -3.2586    1.8288    0.1686 H   0  0  0  0  0  0  0  0  0  0  0  0
   -3.9468    0.3940    1.0523 H   0  0  0  0  0  0  0  0  0  0  0  0
   -3.5118   -0.3991   -0.8470 O   0  0  0  0  0  0  0  0  0  0  0  0
  1  8  1  0  0  0  0
  1  3  1  0  0  0  0
  2  1  1  0  0  0  0
  4 14  1  0  0  0  0
  4  1  1  0  0  0  0
  5  4  1  0  0  0  0
  6  4  1  0  0  0  0
  8 10  1  0  0  0  0
  9  8  1  0  0  0  0
 11  8  1  0  0  0  0
 11 13  1  0  0  0  0
 12 11  1  0  0  0  0
 14 11  1  0  0  0  0
M  END
$$$$
Title Card Required
 OpenBabel06272217483D

 14 13  0  0  0  0  0  0  0  0999 V2000
   -1.4759   -1.2253    0.5176 C   0  0  0  0  0  0  0  0  0  0  0  0
   -0.3827   -1.2896    0.3778 H   0  0  0  0  0  0  0  0  0  0  0  0
   -1.6213   -2.0312    1.2285 H   0  0  0  0  0  0  0  0  0  0  0  0
   -2.1551   -1.2302   -0.9197 C   0  0  0  0  0  0  0  0  0  0  0  0
   -2.7456   -2.1935   -1.0142 H   0  0  0  0  0  0  0  0  0  0  0  0
   -1.5876   -1.0387   -1.7694 H   0  0  0  0  0  0  0  0  0  0  0  0
    2.2273    0.3512    0.0215 Br  0  0  0  0  0 15  0  0  0  0  0  0
   -1.8460    0.1655    0.9165 C   0  0  0  0  0  0  0  0  0  0  0  0
   -1.1633    0.7227    0.1102 H   0  0  0  0  0  0  0  0  0  0  0  0
   -1.4417    0.4058    1.8266 H   0  0  0  0  0  0  0  0  0  0  0  0
   -3.1462    0.7458    0.3028 C   0  0  0  0  0  0  0  0  0  0  0  0
   -3.2480    1.8882    0.1539 H   0  0  0  0  0  0  0  0  0  0  0  0
   -3.9786    0.4513    1.0393 H   0  0  0  0  0  0  0  0  0  0  0  0
   -3.5010   -0.3799   -0.8421 O   0  0  0  0  0  0  0  0  0  0  0  0
  1  8  1  0  0  0  0
  1  3  1  0  0  0  0
  2  1  1  0  0  0  0
  4 14  1  0  0  0  0
  4  1  1  0  0  0  0
  5  4  1  0  0  0  0
  6  4  1  0  0  0  0
  8 10  1  0  0  0  0
  9  8  1  0  0  0  0
 11  8  1  0  0  0  0
 11 13  1  0  0  0  0
 12 11  1  0  0  0  0
 14 11  1  0  0  0  0
M  END
$$$$
Title Card Required
 OpenBabel06272217483D

 14 13  0  0  0  0  0  0  0  0999 V2000
   -1.4747   -1.2349    0.5198 C   0  0  0  0  0  0  0  0  0  0  0  0
   -0.2948   -1.3116    0.4206 H   0  0  0  0  0  0  0  0  0  0  0  0
   -1.6329   -1.9936    1.2554 H   0  0  0  0  0  0  0  0  0  0  0  0
   -2.1475   -1.2355   -0.9145 C   0  0  0  0  0  0  0  0  0  0  0  0
   -2.7235   -2.1375   -1.0290 H   0  0  0  0  0  0  0  0  0  0  0  0
   -1.5926   -1.0422   -1.7472 H   0  0  0  0  0  0  0  0  0  0  0  0
    2.2195    0.3509    0.0211 Br  0  0  0  0  0 15  0  0  0  0  0  0
   -1.8236    0.1643    0.8941 C   0  0  0  0  0  0  0  0  0  0  0  0
   -1.1862    0.7814    0.1247 H   0  0  0  0  0  0  0  0  0  0  0  0
   -1.4753    0.3732    1.8414 H   0  0  0  0  0  0  0  0  0  0  0  0
   -3.1491    0.7200    0.3068 C   0  0  0  0  0  0  0  0  0  0  0  0
   -3.2274    1.9173    0.1285 H   0  0  0  0  0  0  0  0  0  0  0  0
   -4.0018    0.5200    1.0117 H   0  0  0  0  0  0  0  0  0  0  0  0
   -3.4859   -0.3589   -0.8353 O   0  0  0  0  0  0  0  0  0  0  0  0
  1  8  1  0  0  0  0
  1  3  1  0  0  0  0
  2  1  1  0  0  0  0
  4 14  1  0  0  0  0
  4  1  1  0  0  0  0
  5  4  1  0  0  0  0
  6  4  1  0  0  0  0
  8 10  1  0  0  0  0
  9  8  1  0  0  0  0
 11  8  1  0  0  0  0
 11 13  1  0  0  0  0
 12 11  1  0  0  0  0
 14 11  1  0  0  0  0
M  END
$$$$
Title Card Required
 OpenBabel06272217483D

 14 13  0  0  0  0  0  0  0  0999 V2000
   -1.4711   -1.2429    0.5181 C   0  0  0  0  0  0  0  0  0  0  0  0
   -0.2393   -1.3238    0.4592 H   0  0  0  0  0  0  0  0  0  0  0  0
   -1.6635   -1.9717    1.2852 H   0  0  0  0  0  0  0  0  0  0  0  0
   -2.1465   -1.2415   -0.9044 C   0  0  0  0  0  0  0  0  0  0  0  0
   -2.6985   -2.1008   -1.0511 H   0  0  0  0  0  0  0  0  0  0  0  0
   -1.5697   -1.0286   -1.7579 H   0  0  0  0  0  0  0  0  0  0  0  0
    2.2121    0.3505    0.0207 Br  0  0  0  0  0 15  0  0  0  0  0  0
   -1.8013    0.1665    0.8674 C   0  0  0  0  0  0  0  0  0  0  0  0
   -1.2054    0.8232    0.1644 H   0  0  0  0  0  0  0  0  0  0  0  0
   -1.5030    0.3601    1.8909 H   0  0  0  0  0  0  0  0  0  0  0  0
   -3.1548    0.6931    0.3112 C   0  0  0  0  0  0  0  0  0  0  0  0
   -3.1980    1.9033    0.0974 H   0  0  0  0  0  0  0  0  0  0  0  0
   -4.0195    0.5885    0.9795 H   0  0  0  0  0  0  0  0  0  0  0  0
   -3.4678   -0.3372   -0.8269 O   0  0  0  0  0  0  0  0  0  0  0  0
  1  8  1  0  0  0  0
  1  3  1  0  0  0  0
  2  1  1  0  0  0  0
  4 14  1  0  0  0  0
  4  1  1  0  0  0  0
  5  4  1  0  0  0  0
  6  4  1  0  0  0  0
  8 10  1  0  0  0  0
  9  8  1  0  0  0  0
 11  8  1  0  0  0  0
 11 13  1  0  0  0  0
 12 11  1  0  0  0  0
 14 11  1  0  0  0  0
M  END
$$$$
Title Card Required
 OpenBabel06272217483D

 14 13  0  0  0  0  0  0  0  0999 V2000
   -1.4646   -1.2495    0.5137 C   0  0  0  0  0  0  0  0  0  0  0  0
   -0.2226   -1.3282    0.4915 H   0  0  0  0  0  0  0  0  0  0  0  0
   -1.7080   -1.9611    1.3142 H   0  0  0  0  0  0  0  0  0  0  0  0
   -2.1491   -1.2462   -0.8917 C   0  0  0  0  0  0  0  0  0  0  0  0
   -2.6839   -2.0990   -1.0806 H   0  0  0  0  0  0  0  0  0  0  0  0
   -1.5328   -1.0040   -1.7812 H   0  0  0  0  0  0  0  0  0  0  0  0
    2.2052    0.3502    0.0204 Br  0  0  0  0  0 15  0  0  0  0  0  0
   -1.7800    0.1716    0.8409 C   0  0  0  0  0  0  0  0  0  0  0  0
   -1.2137    0.8527    0.2159 H   0  0  0  0  0  0  0  0  0  0  0  0
   -1.5319    0.3576    1.9446 H   0  0  0  0  0  0  0  0  0  0  0  0
   -3.1616    0.6668    0.3146 C   0  0  0  0  0  0  0  0  0  0  0  0
   -3.1625    1.8521    0.0636 H   0  0  0  0  0  0  0  0  0  0  0  0
   -4.0371    0.6490    0.9520 H   0  0  0  0  0  0  0  0  0  0  0  0
   -3.4477   -0.3155   -0.8175 O   0  0  0  0  0  0  0  0  0  0  0  0
  1  8  1  0  0  0  0
  1  3  1  0  0  0  0
  2  1  1  0  0  0  0
  4 14  1  0  0  0  0
  4  1  1  0  0  0  0
  5  4  1  0  0  0  0
  6  4  1  0  0  0  0
  8 10  1  0  0  0  0
  9  8  1  0  0  0  0
 11  8  1  0  0  0  0
 11 13  1  0  0  0  0
 12 11  1  0  0  0  0
 14 11  1  0  0  0  0
M  END
$$$$
Title Card Required
 OpenBabel06272217483D

 14 13  0  0  0  0  0  0  0  0999 V2000
   -1.4557   -1.2550    0.5078 C   0  0  0  0  0  0  0  0  0  0  0  0
   -0.2398   -1.3277    0.5167 H   0  0  0  0  0  0  0  0  0  0  0  0
   -1.7611   -1.9538    1.3363 H   0  0  0  0  0  0  0  0  0  0  0  0
   -2.1531   -1.2488   -0.8787 C   0  0  0  0  0  0  0  0  0  0  0  0
   -2.6810   -2.1295   -1.1167 H   0  0  0  0  0  0  0  0  0  0  0  0
   -1.4969   -0.9755   -1.7964 H   0  0  0  0  0  0  0  0  0  0  0  0
    2.1985    0.3498    0.0201 Br  0  0  0  0  0 15  0  0  0  0  0  0
   -1.7601    0.1787    0.8177 C   0  0  0  0  0  0  0  0  0  0  0  0
   -1.2046    0.8787    0.2669 H   0  0  0  0  0  0  0  0  0  0  0  0
   -1.5651    0.3593    1.9810 H   0  0  0  0  0  0  0  0  0  0  0  0
   -3.1685    0.6415    0.3163 C   0  0  0  0  0  0  0  0  0  0  0  0
   -3.1230    1.7740    0.0279 H   0  0  0  0  0  0  0  0  0  0  0  0
   -4.0579    0.6989    0.9338 H   0  0  0  0  0  0  0  0  0  0  0  0
   -3.4260   -0.2943   -0.8071 O   0  0  0  0  0  0  0  0  0  0  0  0
  1  2  1  0  0  0  0
  1  8  1  0  0  0  0
  1  3  1  0  0  0  0
  4 14  1  0  0  0  0
  4  1  1  0  0  0  0
  5  4  1  0  0  0  0
  6  4  1  0  0  0  0
  8 10  1  0  0  0  0
  9  8  1  0  0  0  0
 11  8  1  0  0  0  0
 11 13  1  0  0  0  0
 12 11  1  0  0  0  0
 14 11  1  0  0  0  0
M  END
$$$$
Title Card Required
 OpenBabel06272217483D

 14 13  0  0  0  0  0  0  0  0999 V2000
   -1.4454   -1.2599    0.5014 C   0  0  0  0  0  0  0  0  0  0  0  0
   -0.2832   -1.3250    0.5344 H   0  0  0  0  0  0  0  0  0  0  0  0
   -1.8178   -1.9435    1.3462 H   0  0  0  0  0  0  0  0  0  0  0  0
   -2.1581   -1.2501   -0.8666 C   0  0  0  0  0  0  0  0  0  0  0  0
   -2.6827   -2.1766   -1.1560 H   0  0  0  0  0  0  0  0  0  0  0  0
   -1.4702   -0.9476   -1.7930 H   0  0  0  0  0  0  0  0  0  0  0  0
    2.1921    0.3495    0.0198 Br  0  0  0  0  0 15  0  0  0  0  0  0
   -1.7423    0.1867    0.7993 C   0  0  0  0  0  0  0  0  0  0  0  0
   -1.1740    0.9093    0.3094 H   0  0  0  0  0  0  0  0  0  0  0  0
   -1.6016    0.3621    1.9924 H   0  0  0  0  0  0  0  0  0  0  0  0
   -3.1748    0.6168    0.3165 C   0  0  0  0  0  0  0  0  0  0  0  0
   -3.0813    1.6808   -0.0100 H   0  0  0  0  0  0  0  0  0  0  0  0
   -4.0813    0.7372    0.9253 H   0  0  0  0  0  0  0  0  0  0  0  0
   -3.4030   -0.2738   -0.7962 O   0  0  0  0  0  0  0  0  0  0  0  0
  1  2  1  0  0  0  0
  1  8  1  0  0  0  0
  1  3  1  0  0  0  0
  4 14  1  0  0  0  0
  4  1  1  0  0  0  0
  5  4  1  0  0  0  0
  6  4  1  0  0  0  0
  8 10  1  0  0  0  0
  9  8  1  0  0  0  0
 11  8  1  0  0  0  0
 11 13  1  0  0  0  0
 12 11  1  0  0  0  0
 14 11  1  0  0  0  0
M  END
$$$$
Title Card Required
 OpenBabel06272217483D

 14 13  0  0  0  0  0  0  0  0999 V2000
   -1.4347   -1.2642    0.4950 C   0  0  0  0  0  0  0  0  0  0  0  0
   -0.3416   -1.3227    0.5442 H   0  0  0  0  0  0  0  0  0  0  0  0
   -1.8744   -1.9266    1.3411 H   0  0  0  0  0  0  0  0  0  0  0  0
   -2.1641   -1.2510   -0.8563 C   0  0  0  0  0  0  0  0  0  0  0  0
   -2.6811   -2.2241   -1.1939 H   0  0  0  0  0  0  0  0  0  0  0  0
   -1.4560   -0.9226   -1.7679 H   0  0  0  0  0  0  0  0  0  0  0  0
    2.1857    0.3492    0.0195 Br  0  0  0  0  0 15  0  0  0  0  0  0
   -1.7267    0.1953    0.7860 C   0  0  0  0  0  0  0  0  0  0  0  0
   -1.1227    0.9465    0.3418 H   0  0  0  0  0  0  0  0  0  0  0  0
   -1.6397    0.3649    1.9775 H   0  0  0  0  0  0  0  0  0  0  0  0
   -3.1802    0.5924    0.3155 C   0  0  0  0  0  0  0  0  0  0  0  0
   -3.0381    1.5859   -0.0518 H   0  0  0  0  0  0  0  0  0  0  0  0
   -4.1039    0.7638    0.9244 H   0  0  0  0  0  0  0  0  0  0  0  0
   -3.3786   -0.2544   -0.7848 O   0  0  0  0  0  0  0  0  0  0  0  0
  1  2  1  0  0  0  0
  1  8  1  0  0  0  0
  1  3  1  0  0  0  0
  4 14  1  0  0  0  0
  4  1  1  0  0  0  0
  5  4  1  0  0  0  0
  6  4  1  0  0  0  0
  8 10  1  0  0  0  0
  9  8  1  0  0  0  0
 11  8  1  0  0  0  0
 11 13  1  0  0  0  0
 12 11  1  0  0  0  0
 14 11  1  0  0  0  0
M  END
$$$$
Title Card Required
 OpenBabel06272217483D

 14 13  0  0  0  0  0  0  0  0999 V2000
   -1.4252   -1.2679    0.4889 C   0  0  0  0  0  0  0  0  0  0  0  0
   -0.3974   -1.3242    0.5467 H   0  0  0  0  0  0  0  0  0  0  0  0
   -1.9288   -1.9011    1.3199 H   0  0  0  0  0  0  0  0  0  0  0  0
   -2.1714   -1.2523   -0.8480 C   0  0  0  0  0  0  0  0  0  0  0  0
   -2.6714   -2.2607   -1.2268 H   0  0  0  0  0  0  0  0  0  0  0  0
   -1.4555   -0.9013   -1.7209 H   0  0  0  0  0  0  0  0  0  0  0  0
    2.1792    0.3488    0.0192 Br  0  0  0  0  0 15  0  0  0  0  0  0
   -1.7127    0.2050    0.7773 C   0  0  0  0  0  0  0  0  0  0  0  0
   -1.0556    0.9858    0.3676 H   0  0  0  0  0  0  0  0  0  0  0  0
   -1.6778    0.3668    1.9380 H   0  0  0  0  0  0  0  0  0  0  0  0
   -3.1846    0.5674    0.3139 C   0  0  0  0  0  0  0  0  0  0  0  0
   -2.9931    1.5032   -0.1003 H   0  0  0  0  0  0  0  0  0  0  0  0
   -4.1213    0.7782    0.9282 H   0  0  0  0  0  0  0  0  0  0  0  0
   -3.3526   -0.2362   -0.7734 O   0  0  0  0  0  0  0  0  0  0  0  0
  1  2  1  0  0  0  0
  1  8  1  0  0  0  0
  1  3  1  0  0  0  0
  4 14  1  0  0  0  0
  4  1  1  0  0  0  0
  5  4  1  0  0  0  0
  6  4  1  0  0  0  0
  8 10  1  0  0  0  0
  9  8  1  0  0  0  0
 11  8  1  0  0  0  0
 11 13  1  0  0  0  0
 12 11  1  0  0  0  0
 14 11  1  0  0  0  0
M  END
$$$$
Title Card Required
 OpenBabel06272217483D

 14 13  0  0  0  0  0  0  0  0999 V2000
   -1.4196   -1.2705    0.4829 C   0  0  0  0  0  0  0  0  0  0  0  0
   -0.4246   -1.3337    0.5422 H   0  0  0  0  0  0  0  0  0  0  0  0
   -1.9787   -1.8664    1.2820 H   0  0  0  0  0  0  0  0  0  0  0  0
   -2.1802   -1.2543   -0.8419 C   0  0  0  0  0  0  0  0  0  0  0  0
   -2.6508   -2.2785   -1.2514 H   0  0  0  0  0  0  0  0  0  0  0  0
   -1.4685   -0.8837   -1.6532 H   0  0  0  0  0  0  0  0  0  0  0  0
    2.1724    0.3484    0.0189 Br  0  0  0  0  0 15  0  0  0  0  0  0
   -1.6997    0.2164    0.7728 C   0  0  0  0  0  0  0  0  0  0  0  0
   -0.9802    1.0185    0.3911 H   0  0  0  0  0  0  0  0  0  0  0  0
   -1.7141    0.3681    1.8784 H   0  0  0  0  0  0  0  0  0  0  0  0
   -3.1877    0.5414    0.3128 C   0  0  0  0  0  0  0  0  0  0  0  0
   -2.9464    1.4455   -0.1574 H   0  0  0  0  0  0  0  0  0  0  0  0
   -4.1288    0.7792    0.9342 H   0  0  0  0  0  0  0  0  0  0  0  0
   -3.3243   -0.2199   -0.7623 O   0  0  0  0  0  0  0  0  0  0  0  0
  1  2  1  0  0  0  0
  1  8  1  0  0  0  0
  1  3  1  0  0  0  0
  4 14  1  0  0  0  0
  4  1  1  0  0  0  0
  5  4  1  0  0  0  0
  6  4  1  0  0  0  0
  8 10  1  0  0  0  0
  9  8  1  0  0  0  0
 11  8  1  0  0  0  0
 11 13  1  0  0  0  0
 12 11  1  0  0  0  0
 14 11  1  0  0  0  0
M  END
$$$$
Title Card Required
 OpenBabel06272217483D

 14 13  0  0  0  0  0  0  0  0999 V2000
   -1.4202   -1.2714    0.4770 C   0  0  0  0  0  0  0  0  0  0  0  0
   -0.4006   -1.3554    0.5313 H   0  0  0  0  0  0  0  0  0  0  0  0
   -2.0217   -1.8249    1.2310 H   0  0  0  0  0  0  0  0  0  0  0  0
   -2.1907   -1.2574   -0.8379 C   0  0  0  0  0  0  0  0  0  0  0  0
   -2.6189   -2.2718   -1.2645 H   0  0  0  0  0  0  0  0  0  0  0  0
   -1.4913   -0.8685   -1.5729 H   0  0  0  0  0  0  0  0  0  0  0  0
    2.1651    0.3480    0.0186 Br  0  0  0  0  0 15  0  0  0  0  0  0
   -1.6872    0.2300    0.7717 C   0  0  0  0  0  0  0  0  0  0  0  0
   -0.9073    1.0341    0.4152 H   0  0  0  0  0  0  0  0  0  0  0  0
   -1.7453    0.3699    1.8137 H   0  0  0  0  0  0  0  0  0  0  0  0
   -3.1886    0.5161    0.3127 C   0  0  0  0  0  0  0  0  0  0  0  0
   -2.9016    1.4199   -0.2176 H   0  0  0  0  0  0  0  0  0  0  0  0
   -4.1216    0.7647    0.9400 H   0  0  0  0  0  0  0  0  0  0  0  0
   -3.2943   -0.2073   -0.7529 O   0  0  0  0  0  0  0  0  0  0  0  0
  1  2  1  0  0  0  0
  1  8  1  0  0  0  0
  1  3  1  0  0  0  0
  4 14  1  0  0  0  0
  4  1  1  0  0  0  0
  5  4  1  0  0  0  0
  6  4  1  0  0  0  0
  8 10  1  0  0  0  0
  9  8  1  0  0  0  0
 11  8  1  0  0  0  0
 11 13  1  0  0  0  0
 12 11  1  0  0  0  0
 14 11  1  0  0  0  0
M  END
$$$$
Title Card Required
 OpenBabel06272217483D

 14 13  0  0  0  0  0  0  0  0999 V2000
   -1.4267   -1.2695    0.4708 C   0  0  0  0  0  0  0  0  0  0  0  0
   -0.3342   -1.3913    0.5132 H   0  0  0  0  0  0  0  0  0  0  0  0
   -2.0590   -1.7825    1.1756 H   0  0  0  0  0  0  0  0  0  0  0  0
   -2.2033   -1.2618   -0.8351 C   0  0  0  0  0  0  0  0  0  0  0  0
   -2.5782   -2.2400   -1.2649 H   0  0  0  0  0  0  0  0  0  0  0  0
   -1.5128   -0.8503   -1.4957 H   0  0  0  0  0  0  0  0  0  0  0  0
    2.1573    0.3475    0.0183 Br  0  0  0  0  0 15  0  0  0  0  0  0
   -1.6743    0.2459    0.7721 C   0  0  0  0  0  0  0  0  0  0  0  0
   -0.8467    1.0243    0.4415 H   0  0  0  0  0  0  0  0  0  0  0  0
   -1.7692    0.3753    1.7729 H   0  0  0  0  0  0  0  0  0  0  0  0
   -3.1856    0.4945    0.3143 C   0  0  0  0  0  0  0  0  0  0  0  0
   -2.8662    1.4228   -0.2678 H   0  0  0  0  0  0  0  0  0  0  0  0
   -4.0974    0.7327    0.9449 H   0  0  0  0  0  0  0  0  0  0  0  0
   -3.2624   -0.2003   -0.7467 O   0  0  0  0  0  0  0  0  0  0  0  0
  1  2  1  0  0  0  0
  1  8  1  0  0  0  0
  1  3  1  0  0  0  0
  4 14  1  0  0  0  0
  4  1  1  0  0  0  0
  5  4  1  0  0  0  0
  6  4  1  0  0  0  0
  8 10  1  0  0  0  0
  9  8  1  0  0  0  0
 11  8  1  0  0  0  0
 11 13  1  0  0  0  0
 12 11  1  0  0  0  0
 14 11  1  0  0  0  0
M  END
$$$$
Title Card Required
 OpenBabel06272217483D

 14 13  0  0  0  0  0  0  0  0999 V2000
   -1.4361   -1.2639    0.4637 C   0  0  0  0  0  0  0  0  0  0  0  0
   -0.2628   -1.4402    0.4863 H   0  0  0  0  0  0  0  0  0  0  0  0
   -2.0960   -1.7495    1.1309 H   0  0  0  0  0  0  0  0  0  0  0  0
   -2.2185   -1.2669   -0.8320 C   0  0  0  0  0  0  0  0  0  0  0  0
   -2.5355   -2.1922   -1.2558 H   0  0  0  0  0  0  0  0  0  0  0  0
   -1.5149   -0.8200   -1.4441 H   0  0  0  0  0  0  0  0  0  0  0  0
    2.1487    0.3470    0.0179 Br  0  0  0  0  0 15  0  0  0  0  0  0
   -1.6603    0.2639    0.7724 C   0  0  0  0  0  0  0  0  0  0  0  0
   -0.8059    0.9842    0.4692 H   0  0  0  0  0  0  0  0  0  0  0  0
   -1.7847    0.3876    1.7896 H   0  0  0  0  0  0  0  0  0  0  0  0
   -3.1763    0.4800    0.3177 C   0  0  0  0  0  0  0  0  0  0  0  0
   -2.8509    1.4476   -0.2901 H   0  0  0  0  0  0  0  0  0  0  0  0
   -4.0573    0.6812    0.9512 H   0  0  0  0  0  0  0  0  0  0  0  0
   -3.2289   -0.2011   -0.7457 O   0  0  0  0  0  0  0  0  0  0  0  0
  1  2  1  0  0  0  0
  1  8  1  0  0  0  0
  1  3  1  0  0  0  0
  4 14  1  0  0  0  0
  4  1  1  0  0  0  0
  5  4  1  0  0  0  0
  6  4  1  0  0  0  0
  8 10  1  0  0  0  0
  9  8  1  0  0  0  0
 11  8  1  0  0  0  0
 11 13  1  0  0  0  0
 12 11  1  0  0  0  0
 14 11  1  0  0  0  0
M  END
$$$$
Title Card Required
 OpenBabel06272217483D

 14 13  0  0  0  0  0  0  0  0999 V2000
   -1.4443   -1.2546    0.4561 C   0  0  0  0  0  0  0  0  0  0  0  0
   -0.2315   -1.4924    0.4532 H   0  0  0  0  0  0  0  0  0  0  0  0
   -2.1345   -1.7381    1.1150 H   0  0  0  0  0  0  0  0  0  0  0  0
   -2.2334   -1.2697   -0.8279 C   0  0  0  0  0  0  0  0  0  0  0  0
   -2.5083   -2.1601   -1.2499 H   0  0  0  0  0  0  0  0  0  0  0  0
   -1.4897   -0.7791   -1.4335 H   0  0  0  0  0  0  0  0  0  0  0  0
    2.1398    0.3464    0.0175 Br  0  0  0  0  0 15  0  0  0  0  0  0
   -1.6464    0.2815    0.7738 C   0  0  0  0  0  0  0  0  0  0  0  0
   -0.7886    0.9226    0.4917 H   0  0  0  0  0  0  0  0  0  0  0  0
   -1.7873    0.4047    1.8589 H   0  0  0  0  0  0  0  0  0  0  0  0
   -3.1586    0.4765    0.3220 C   0  0  0  0  0  0  0  0  0  0  0  0
   -2.8659    1.4834   -0.2695 H   0  0  0  0  0  0  0  0  0  0  0  0
   -4.0131    0.6148    0.9655 H   0  0  0  0  0  0  0  0  0  0  0  0
   -3.1969   -0.2111   -0.7515 O   0  0  0  0  0  0  0  0  0  0  0  0
  1  8  1  0  0  0  0
  1  3  1  0  0  0  0
  2  1  1  0  0  0  0
  4 14  1  0  0  0  0
  4  1  1  0  0  0  0
  5  4  1  0  0  0  0
  6  4  1  0  0  0  0
  8 10  1  0  0  0  0
  9  8  1  0  0  0  0
 11  8  1  0  0  0  0
 11 13  1  0  0  0  0
 12 11  1  0  0  0  0
 14 11  1  0  0  0  0
M  END
$$$$
Title Card Required
 OpenBabel06272217483D

 14 13  0  0  0  0  0  0  0  0999 V2000
   -1.4500   -1.2435    0.4493 C   0  0  0  0  0  0  0  0  0  0  0  0
   -0.2551   -1.5372    0.4199 H   0  0  0  0  0  0  0  0  0  0  0  0
   -2.1659   -1.7458    1.1261 H   0  0  0  0  0  0  0  0  0  0  0  0
   -2.2435   -1.2672   -0.8238 C   0  0  0  0  0  0  0  0  0  0  0  0
   -2.5068   -2.1698   -1.2593 H   0  0  0  0  0  0  0  0  0  0  0  0
   -1.4555   -0.7459   -1.4507 H   0  0  0  0  0  0  0  0  0  0  0  0
    2.1314    0.3459    0.0172 Br  0  0  0  0  0 15  0  0  0  0  0  0
   -1.6351    0.2958    0.7797 C   0  0  0  0  0  0  0  0  0  0  0  0
   -0.7816    0.8633    0.5010 H   0  0  0  0  0  0  0  0  0  0  0  0
   -1.7740    0.4204    1.9328 H   0  0  0  0  0  0  0  0  0  0  0  0
   -3.1340    0.4834    0.3254 C   0  0  0  0  0  0  0  0  0  0  0  0
   -2.9089    1.5173   -0.2105 H   0  0  0  0  0  0  0  0  0  0  0  0
   -3.9780    0.5428    0.9926 H   0  0  0  0  0  0  0  0  0  0  0  0
   -3.1699   -0.2275   -0.7623 O   0  0  0  0  0  0  0  0  0  0  0  0
  1  8  1  0  0  0  0
  1  3  1  0  0  0  0
  2  1  1  0  0  0  0
  4 14  1  0  0  0  0
  4  1  1  0  0  0  0
  5  4  1  0  0  0  0
  6  4  1  0  0  0  0
  8 10  1  0  0  0  0
  9  8  1  0  0  0  0
 11  8  1  0  0  0  0
 11 13  1  0  0  0  0
 12 11  1  0  0  0  0
 14 11  1  0  0  0  0
M  END
$$$$
Title Card Required
 OpenBabel06272217483D

 14 13  0  0  0  0  0  0  0  0999 V2000
   -1.4542   -1.2327    0.4447 C   0  0  0  0  0  0  0  0  0  0  0  0
   -0.3189   -1.5709    0.3904 H   0  0  0  0  0  0  0  0  0  0  0  0
   -2.1808   -1.7609    1.1484 H   0  0  0  0  0  0  0  0  0  0  0  0
   -2.2473   -1.2604   -0.8214 C   0  0  0  0  0  0  0  0  0  0  0  0
   -2.5233   -2.2060   -1.2776 H   0  0  0  0  0  0  0  0  0  0  0  0
   -1.4292   -0.7329   -1.4769 H   0  0  0  0  0  0  0  0  0  0  0  0
    2.1237    0.3453    0.0169 Br  0  0  0  0  0 15  0  0  0  0  0  0
   -1.6278    0.3053    0.7909 C   0  0  0  0  0  0  0  0  0  0  0  0
   -0.7677    0.8242    0.4942 H   0  0  0  0  0  0  0  0  0  0  0  0
   -1.7474    0.4318    1.9807 H   0  0  0  0  0  0  0  0  0  0  0  0
   -3.1059    0.4969    0.3271 C   0  0  0  0  0  0  0  0  0  0  0  0
   -2.9692    1.5428   -0.1310 H   0  0  0  0  0  0  0  0  0  0  0  0
   -3.9520    0.4708    1.0281 H   0  0  0  0  0  0  0  0  0  0  0  0
   -3.1488   -0.2463   -0.7753 O   0  0  0  0  0  0  0  0  0  0  0  0
  1  8  1  0  0  0  0
  1  3  1  0  0  0  0
  2  1  1  0  0  0  0
  4 14  1  0  0  0  0
  4  1  1  0  0  0  0
  5  4  1  0  0  0  0
  6  4  1  0  0  0  0
  8 10  1  0  0  0  0
  9  8  1  0  0  0  0
 11  8  1  0  0  0  0
 11 13  1  0  0  0  0
 12 11  1  0  0  0  0
 14 11  1  0  0  0  0
M  END
$$$$
Title Card Required
 OpenBabel06272217483D

 14 13  0  0  0  0  0  0  0  0999 V2000
   -1.4582   -1.2228    0.4425 C   0  0  0  0  0  0  0  0  0  0  0  0
   -0.4035   -1.5956    0.3657 H   0  0  0  0  0  0  0  0  0  0  0  0
   -2.1774   -1.7756    1.1711 H   0  0  0  0  0  0  0  0  0  0  0  0
   -2.2458   -1.2522   -0.8218 C   0  0  0  0  0  0  0  0  0  0  0  0
   -2.5464   -2.2435   -1.2934 H   0  0  0  0  0  0  0  0  0  0  0  0
   -1.4148   -0.7407   -1.5036 H   0  0  0  0  0  0  0  0  0  0  0  0
    2.1167    0.3449    0.0166 Br  0  0  0  0  0 15  0  0  0  0  0  0
   -1.6236    0.3108    0.8063 C   0  0  0  0  0  0  0  0  0  0  0  0
   -0.7430    0.8059    0.4741 H   0  0  0  0  0  0  0  0  0  0  0  0
   -1.7118    0.4392    1.9998 H   0  0  0  0  0  0  0  0  0  0  0  0
   -3.0767    0.5139    0.3278 C   0  0  0  0  0  0  0  0  0  0  0  0
   -3.0387    1.5617   -0.0449 H   0  0  0  0  0  0  0  0  0  0  0  0
   -3.9267    0.3999    1.0644 H   0  0  0  0  0  0  0  0  0  0  0  0
   -3.1326   -0.2650   -0.7889 O   0  0  0  0  0  0  0  0  0  0  0  0
  1  8  1  0  0  0  0
  1  3  1  0  0  0  0
  2  1  1  0  0  0  0
  4 14  1  0  0  0  0
  4  1  1  0  0  0  0
  5  4  1  0  0  0  0
  6  4  1  0  0  0  0
  8 10  1  0  0  0  0
  9  8  1  0  0  0  0
 11  8  1  0  0  0  0
 11 13  1  0  0  0  0
 12 11  1  0  0  0  0
 14 11  1  0  0  0  0
M  END
$$$$
Title Card Required
 OpenBabel06272217483D

 14 13  0  0  0  0  0  0  0  0999 V2000
   -1.4634   -1.2137    0.4425 C   0  0  0  0  0  0  0  0  0  0  0  0
   -0.4915   -1.6165    0.3448 H   0  0  0  0  0  0  0  0  0  0  0  0
   -2.1577   -1.7869    1.1897 H   0  0  0  0  0  0  0  0  0  0  0  0
   -2.2395   -1.2445   -0.8250 C   0  0  0  0  0  0  0  0  0  0  0  0
   -2.5700   -2.2693   -1.3005 H   0  0  0  0  0  0  0  0  0  0  0  0
   -1.4107   -0.7667   -1.5288 H   0  0  0  0  0  0  0  0  0  0  0  0
    2.1099    0.3444    0.0163 Br  0  0  0  0  0 15  0  0  0  0  0  0
   -1.6210    0.3135    0.8250 C   0  0  0  0  0  0  0  0  0  0  0  0
   -0.7134    0.8015    0.4453 H   0  0  0  0  0  0  0  0  0  0  0  0
   -1.6698    0.4436    1.9948 H   0  0  0  0  0  0  0  0  0  0  0  0
   -3.0473    0.5323    0.3282 C   0  0  0  0  0  0  0  0  0  0  0  0
   -3.1137    1.5792    0.0403 H   0  0  0  0  0  0  0  0  0  0  0  0
   -3.8944    0.3299    1.0957 H   0  0  0  0  0  0  0  0  0  0  0  0
   -3.1205   -0.2826   -0.8025 O   0  0  0  0  0  0  0  0  0  0  0  0
  1  8  1  0  0  0  0
  1  3  1  0  0  0  0
  2  1  1  0  0  0  0
  4 14  1  0  0  0  0
  4  1  1  0  0  0  0
  5  4  1  0  0  0  0
  6  4  1  0  0  0  0
  8 10  1  0  0  0  0
  9  8  1  0  0  0  0
 11  8  1  0  0  0  0
 11 13  1  0  0  0  0
 12 11  1  0  0  0  0
 14 11  1  0  0  0  0
M  END
$$$$
Title Card Required
 OpenBabel06272217483D

 14 13  0  0  0  0  0  0  0  0999 V2000
   -1.4715   -1.2049    0.4449 C   0  0  0  0  0  0  0  0  0  0  0  0
   -0.5642   -1.6402    0.3264 H   0  0  0  0  0  0  0  0  0  0  0  0
   -2.1237   -1.7936    1.2027 H   0  0  0  0  0  0  0  0  0  0  0  0
   -2.2288   -1.2381   -0.8313 C   0  0  0  0  0  0  0  0  0  0  0  0
   -2.5911   -2.2786   -1.2963 H   0  0  0  0  0  0  0  0  0  0  0  0
   -1.4151   -0.8089   -1.5522 H   0  0  0  0  0  0  0  0  0  0  0  0
    2.1033    0.3439    0.0161 Br  0  0  0  0  0 15  0  0  0  0  0  0
   -1.6185    0.3144    0.8460 C   0  0  0  0  0  0  0  0  0  0  0  0
   -0.6876    0.8042    0.4128 H   0  0  0  0  0  0  0  0  0  0  0  0
   -1.6227    0.4458    1.9712 H   0  0  0  0  0  0  0  0  0  0  0  0
   -3.0180    0.5508    0.3289 C   0  0  0  0  0  0  0  0  0  0  0  0
   -3.1929    1.6000    0.1211 H   0  0  0  0  0  0  0  0  0  0  0  0
   -3.8503    0.2608    1.1186 H   0  0  0  0  0  0  0  0  0  0  0  0
   -3.1118   -0.2983   -0.8159 O   0  0  0  0  0  0  0  0  0  0  0  0
  1  8  1  0  0  0  0
  1  3  1  0  0  0  0
  2  1  1  0  0  0  0
  4 14  1  0  0  0  0
  4  1  1  0  0  0  0
  5  4  1  0  0  0  0
  6  4  1  0  0  0  0
  8 10  1  0  0  0  0
  9  8  1  0  0  0  0
 11  8  1  0  0  0  0
 11 13  1  0  0  0  0
 12 11  1  0  0  0  0
 14 11  1  0  0  0  0
M  END
$$$$
Title Card Required
 OpenBabel06272217483D

 14 13  0  0  0  0  0  0  0  0999 V2000
   -1.4833   -1.1959    0.4498 C   0  0  0  0  0  0  0  0  0  0  0  0
   -0.6047   -1.6728    0.3088 H   0  0  0  0  0  0  0  0  0  0  0  0
   -2.0791   -1.7959    1.2099 H   0  0  0  0  0  0  0  0  0  0  0  0
   -2.2139   -1.2339   -0.8404 C   0  0  0  0  0  0  0  0  0  0  0  0
   -2.6076   -2.2698   -1.2798 H   0  0  0  0  0  0  0  0  0  0  0  0
   -1.4250   -0.8649   -1.5742 H   0  0  0  0  0  0  0  0  0  0  0  0
    2.0966    0.3435    0.0158 Br  0  0  0  0  0 15  0  0  0  0  0  0
   -1.6148    0.3139    0.8678 C   0  0  0  0  0  0  0  0  0  0  0  0
   -0.6729    0.8086    0.3816 H   0  0  0  0  0  0  0  0  0  0  0  0
   -1.5720    0.4469    1.9383 H   0  0  0  0  0  0  0  0  0  0  0  0
   -2.9893    0.5687    0.3301 C   0  0  0  0  0  0  0  0  0  0  0  0
   -3.2744    1.6241    0.1948 H   0  0  0  0  0  0  0  0  0  0  0  0
   -3.7924    0.1944    1.1303 H   0  0  0  0  0  0  0  0  0  0  0  0
   -3.1067   -0.3114   -0.8291 O   0  0  0  0  0  0  0  0  0  0  0  0
  1  8  1  0  0  0  0
  1  3  1  0  0  0  0
  2  1  1  0  0  0  0
  4 14  1  0  0  0  0
  4  1  1  0  0  0  0
  5  4  1  0  0  0  0
  6  4  1  0  0  0  0
  8 10  1  0  0  0  0
  9  8  1  0  0  0  0
 11  8  1  0  0  0  0
 11 13  1  0  0  0  0
 12 11  1  0  0  0  0
 14 11  1  0  0  0  0
M  END
$$$$
Title Card Required
 OpenBabel06272217483D

 14 13  0  0  0  0  0  0  0  0999 V2000
   -1.4984   -1.1867    0.4569 C   0  0  0  0  0  0  0  0  0  0  0  0
   -0.6094   -1.7143    0.2923 H   0  0  0  0  0  0  0  0  0  0  0  0
   -2.0297   -1.7952    1.2132 H   0  0  0  0  0  0  0  0  0  0  0  0
   -2.1954   -1.2323   -0.8519 C   0  0  0  0  0  0  0  0  0  0  0  0
   -2.6185   -2.2450   -1.2514 H   0  0  0  0  0  0  0  0  0  0  0  0
   -1.4361   -0.9305   -1.5964 H   0  0  0  0  0  0  0  0  0  0  0  0
    2.0899    0.3430    0.0155 Br  0  0  0  0  0 15  0  0  0  0  0  0
   -1.6091    0.3126    0.8884 C   0  0  0  0  0  0  0  0  0  0  0  0
   -0.6741    0.8110    0.3561 H   0  0  0  0  0  0  0  0  0  0  0  0
   -1.5191    0.4487    1.9110 H   0  0  0  0  0  0  0  0  0  0  0  0
   -2.9619    0.5853    0.3322 C   0  0  0  0  0  0  0  0  0  0  0  0
   -3.3541    1.6466    0.2600 H   0  0  0  0  0  0  0  0  0  0  0  0
   -3.7212    0.1331    1.1298 H   0  0  0  0  0  0  0  0  0  0  0  0
   -3.1051   -0.3212   -0.8418 O   0  0  0  0  0  0  0  0  0  0  0  0
  1  8  1  0  0  0  0
  1  3  1  0  0  0  0
  2  1  1  0  0  0  0
  4 14  1  0  0  0  0
  4  1  1  0  0  0  0
  5  4  1  0  0  0  0
  6  4  1  0  0  0  0
  8 10  1  0  0  0  0
  9  8  1  0  0  0  0
 11  8  1  0  0  0  0
 11 13  1  0  0  0  0
 12 11  1  0  0  0  0
 14 11  1  0  0  0  0
M  END
$$$$
Title Card Required
 OpenBabel06272217483D

 14 13  0  0  0  0  0  0  0  0999 V2000
   -1.5151   -1.1779    0.4656 C   0  0  0  0  0  0  0  0  0  0  0  0
   -0.5898   -1.7563    0.2791 H   0  0  0  0  0  0  0  0  0  0  0  0
   -1.9820   -1.7945    1.2166 H   0  0  0  0  0  0  0  0  0  0  0  0
   -2.1739   -1.2335   -0.8652 C   0  0  0  0  0  0  0  0  0  0  0  0
   -2.6240   -2.2089   -1.2122 H   0  0  0  0  0  0  0  0  0  0  0  0
   -1.4429   -1.0015   -1.6225 H   0  0  0  0  0  0  0  0  0  0  0  0
    2.0830    0.3425    0.0152 Br  0  0  0  0  0 15  0  0  0  0  0  0
   -1.6006    0.3105    0.9060 C   0  0  0  0  0  0  0  0  0  0  0  0
   -0.6925    0.8093    0.3393 H   0  0  0  0  0  0  0  0  0  0  0  0
   -1.4636    0.4535    1.9061 H   0  0  0  0  0  0  0  0  0  0  0  0
   -2.9365    0.6008    0.3353 C   0  0  0  0  0  0  0  0  0  0  0  0
   -3.4276    1.6599    0.3166 H   0  0  0  0  0  0  0  0  0  0  0  0
   -3.6382    0.0782    1.1171 H   0  0  0  0  0  0  0  0  0  0  0  0
   -3.1066   -0.3274   -0.8541 O   0  0  0  0  0  0  0  0  0  0  0  0
  1  8  1  0  0  0  0
  1  3  1  0  0  0  0
  2  1  1  0  0  0  0
  4 14  1  0  0  0  0
  4  1  1  0  0  0  0
  5  4  1  0  0  0  0
  6  4  1  0  0  0  0
  8 10  1  0  0  0  0
  9  8  1  0  0  0  0
 11  8  1  0  0  0  0
 11 13  1  0  0  0  0
 12 11  1  0  0  0  0
 14 11  1  0  0  0  0
M  END
$$$$
Title Card Required
 OpenBabel06272217483D

 14 13  0  0  0  0  0  0  0  0999 V2000
   -1.5311   -1.1701    0.4754 C   0  0  0  0  0  0  0  0  0  0  0  0
   -0.5613   -1.7875    0.2729 H   0  0  0  0  0  0  0  0  0  0  0  0
   -1.9430   -1.7985    1.2255 H   0  0  0  0  0  0  0  0  0  0  0  0
   -2.1501   -1.2370   -0.8794 C   0  0  0  0  0  0  0  0  0  0  0  0
   -2.6259   -2.1698   -1.1640 H   0  0  0  0  0  0  0  0  0  0  0  0
   -1.4389   -1.0739   -1.6570 H   0  0  0  0  0  0  0  0  0  0  0  0
    2.0758    0.3420    0.0149 Br  0  0  0  0  0 15  0  0  0  0  0  0
   -1.5889    0.3080    0.9192 C   0  0  0  0  0  0  0  0  0  0  0  0
   -0.7270    0.8026    0.3327 H   0  0  0  0  0  0  0  0  0  0  0  0
   -1.4044    0.4631    1.9327 H   0  0  0  0  0  0  0  0  0  0  0  0
   -2.9133    0.6153    0.3395 C   0  0  0  0  0  0  0  0  0  0  0  0
   -3.4895    1.6572    0.3641 H   0  0  0  0  0  0  0  0  0  0  0  0
   -3.5461    0.0310    1.0934 H   0  0  0  0  0  0  0  0  0  0  0  0
   -3.1111   -0.3297   -0.8662 O   0  0  0  0  0  0  0  0  0  0  0  0
  1  8  1  0  0  0  0
  1  3  1  0  0  0  0
  2  1  1  0  0  0  0
  4 14  1  0  0  0  0
  4  1  1  0  0  0  0
  5  4  1  0  0  0  0
  6  4  1  0  0  0  0
  8 10  1  0  0  0  0
  9  8  1  0  0  0  0
 11 12  1  0  0  0  0
 11  8  1  0  0  0  0
 11 13  1  0  0  0  0
 14 11  1  0  0  0  0
M  END
$$$$
Title Card Required
 OpenBabel06272217483D

 14 13  0  0  0  0  0  0  0  0999 V2000
   -1.5445   -1.1641    0.4855 C   0  0  0  0  0  0  0  0  0  0  0  0
   -0.5365   -1.7967    0.2776 H   0  0  0  0  0  0  0  0  0  0  0  0
   -1.9187   -1.8113    1.2441 H   0  0  0  0  0  0  0  0  0  0  0  0
   -2.1245   -1.2420   -0.8938 C   0  0  0  0  0  0  0  0  0  0  0  0
   -2.6287   -2.1412   -1.1097 H   0  0  0  0  0  0  0  0  0  0  0  0
   -1.4197   -1.1438   -1.7027 H   0  0  0  0  0  0  0  0  0  0  0  0
    2.0683    0.3414    0.0146 Br  0  0  0  0  0 15  0  0  0  0  0  0
   -1.5735    0.3051    0.9285 C   0  0  0  0  0  0  0  0  0  0  0  0
   -0.7725    0.7918    0.3360 H   0  0  0  0  0  0  0  0  0  0  0  0
   -1.3432    0.4767    1.9842 H   0  0  0  0  0  0  0  0  0  0  0  0
   -2.8929    0.6287    0.3450 C   0  0  0  0  0  0  0  0  0  0  0  0
   -3.5336    1.6331    0.4011 H   0  0  0  0  0  0  0  0  0  0  0  0
   -3.4512   -0.0084    1.0619 H   0  0  0  0  0  0  0  0  0  0  0  0
   -3.1180   -0.3279   -0.8783 O   0  0  0  0  0  0  0  0  0  0  0  0
  1  8  1  0  0  0  0
  1  3  1  0  0  0  0
  2  1  1  0  0  0  0
  4 14  1  0  0  0  0
  4  1  1  0  0  0  0
  5  4  1  0  0  0  0
  6  4  1  0  0  0  0
  8 10  1  0  0  0  0
  9  8  1  0  0  0  0
 11 12  1  0  0  0  0
 11  8  1  0  0  0  0
 11 13  1  0  0  0  0
 14 11  1  0  0  0  0
M  END
$$$$
Title Card Required
 OpenBabel06272217483D

 14 13  0  0  0  0  0  0  0  0999 V2000
   -1.5536   -1.1606    0.4956 C   0  0  0  0  0  0  0  0  0  0  0  0
   -0.5240   -1.7755    0.2971 H   0  0  0  0  0  0  0  0  0  0  0  0
   -1.9131   -1.8333    1.2723 H   0  0  0  0  0  0  0  0  0  0  0  0
   -2.0974   -1.2473   -0.9078 C   0  0  0  0  0  0  0  0  0  0  0  0
   -2.6380   -2.1380   -1.0521 H   0  0  0  0  0  0  0  0  0  0  0  0
   -1.3861   -1.2090   -1.7568 H   0  0  0  0  0  0  0  0  0  0  0  0
    2.0601    0.3408    0.0143 Br  0  0  0  0  0 15  0  0  0  0  0  0
   -1.5539    0.3021    0.9352 C   0  0  0  0  0  0  0  0  0  0  0  0
   -0.8167    0.7813    0.3447 H   0  0  0  0  0  0  0  0  0  0  0  0
   -1.2845    0.4914    2.0404 H   0  0  0  0  0  0  0  0  0  0  0  0
   -2.8758    0.6409    0.3516 C   0  0  0  0  0  0  0  0  0  0  0  0
   -3.5541    1.5853    0.4260 H   0  0  0  0  0  0  0  0  0  0  0  0
   -3.3637   -0.0419    1.0294 H   0  0  0  0  0  0  0  0  0  0  0  0
   -3.1268   -0.3216   -0.8907 O   0  0  0  0  0  0  0  0  0  0  0  0
  1  8  1  0  0  0  0
  1  3  1  0  0  0  0
  2  1  1  0  0  0  0
  4 14  1  0  0  0  0
  4  1  1  0  0  0  0
  5  4  1  0  0  0  0
  6  4  1  0  0  0  0
  8 10  1  0  0  0  0
  9  8  1  0  0  0  0
 11 12  1  0  0  0  0
 11  8  1  0  0  0  0
 11 13  1  0  0  0  0
 14 11  1  0  0  0  0
M  END
$$$$
Title Card Required
 OpenBabel06272217483D

 14 13  0  0  0  0  0  0  0  0999 V2000
   -1.5569   -1.1609    0.5061 C   0  0  0  0  0  0  0  0  0  0  0  0
   -0.5289   -1.7179    0.3347 H   0  0  0  0  0  0  0  0  0  0  0  0
   -1.9272   -1.8587    1.3023 H   0  0  0  0  0  0  0  0  0  0  0  0
   -2.0696   -1.2524   -0.9215 C   0  0  0  0  0  0  0  0  0  0  0  0
   -2.6540   -2.1662   -0.9931 H   0  0  0  0  0  0  0  0  0  0  0  0
   -1.3456   -1.2668   -1.8084 H   0  0  0  0  0  0  0  0  0  0  0  0
    2.0514    0.3401    0.0139 Br  0  0  0  0  0 15  0  0  0  0  0  0
   -1.5303    0.2989    0.9417 C   0  0  0  0  0  0  0  0  0  0  0  0
   -0.8378    0.7807    0.3479 H   0  0  0  0  0  0  0  0  0  0  0  0
   -1.2359    0.5031    2.0776 H   0  0  0  0  0  0  0  0  0  0  0  0
   -2.8622    0.6510    0.3590 C   0  0  0  0  0  0  0  0  0  0  0  0
   -3.5486    1.5182    0.4371 H   0  0  0  0  0  0  0  0  0  0  0  0
   -3.2981   -0.0741    1.0061 H   0  0  0  0  0  0  0  0  0  0  0  0
   -3.1365   -0.3106   -0.9034 O   0  0  0  0  0  0  0  0  0  0  0  0
  1  8  1  0  0  0  0
  1  3  1  0  0  0  0
  2  1  1  0  0  0  0
  4 14  1  0  0  0  0
  4  1  1  0  0  0  0
  5  4  1  0  0  0  0
  6  4  1  0  0  0  0
  8 10  1  0  0  0  0
  9  8  1  0  0  0  0
 11 12  1  0  0  0  0
 11  8  1  0  0  0  0
 11 13  1  0  0  0  0
 14 11  1  0  0  0  0
M  END
$$$$
Title Card Required
 OpenBabel06272217483D

 14 13  0  0  0  0  0  0  0  0999 V2000
   -1.5533   -1.1655    0.5171 C   0  0  0  0  0  0  0  0  0  0  0  0
   -0.5478   -1.6274    0.3902 H   0  0  0  0  0  0  0  0  0  0  0  0
   -1.9583   -1.8764    1.3207 H   0  0  0  0  0  0  0  0  0  0  0  0
   -2.0436   -1.2579   -0.9346 C   0  0  0  0  0  0  0  0  0  0  0  0
   -2.6661   -2.2123   -0.9367 H   0  0  0  0  0  0  0  0  0  0  0  0
   -1.3107   -1.3124   -1.8411 H   0  0  0  0  0  0  0  0  0  0  0  0
    2.0421    0.3394    0.0136 Br  0  0  0  0  0 15  0  0  0  0  0  0
   -1.5041    0.2955    0.9492 C   0  0  0  0  0  0  0  0  0  0  0  0
   -0.8154    0.7978    0.3354 H   0  0  0  0  0  0  0  0  0  0  0  0
   -1.2049    0.5081    2.0776 H   0  0  0  0  0  0  0  0  0  0  0  0
   -2.8520    0.6566    0.3667 C   0  0  0  0  0  0  0  0  0  0  0  0
   -3.5257    1.4529    0.4340 H   0  0  0  0  0  0  0  0  0  0  0  0
   -3.2685   -0.1067    1.0011 H   0  0  0  0  0  0  0  0  0  0  0  0
   -3.1453   -0.2952   -0.9162 O   0  0  0  0  0  0  0  0  0  0  0  0
  1  8  1  0  0  0  0
  1  3  1  0  0  0  0
  2  1  1  0  0  0  0
  4 14  1  0  0  0  0
  4  1  1  0  0  0  0
  5  4  1  0  0  0  0
  6  4  1  0  0  0  0
  8 10  1  0  0  0  0
  9  8  1  0  0  0  0
 11 12  1  0  0  0  0
 11  8  1  0  0  0  0
 11 13  1  0  0  0  0
 14 11  1  0  0  0  0
M  END
$$$$
Title Card Required
 OpenBabel06272217483D

 14 13  0  0  0  0  0  0  0  0999 V2000
   -1.5441   -1.1737    0.5287 C   0  0  0  0  0  0  0  0  0  0  0  0
   -0.5601   -1.5222    0.4589 H   0  0  0  0  0  0  0  0  0  0  0  0
   -2.0006   -1.8775    1.3174 H   0  0  0  0  0  0  0  0  0  0  0  0
   -2.0224   -1.2648   -0.9461 C   0  0  0  0  0  0  0  0  0  0  0  0
   -2.6597   -2.2529   -0.8895 H   0  0  0  0  0  0  0  0  0  0  0  0
   -1.2908   -1.3418   -1.8443 H   0  0  0  0  0  0  0  0  0  0  0  0
    2.0327    0.3387    0.0132 Br  0  0  0  0  0 15  0  0  0  0  0  0
   -1.4764    0.2928    0.9564 C   0  0  0  0  0  0  0  0  0  0  0  0
   -0.7547    0.8252    0.3130 H   0  0  0  0  0  0  0  0  0  0  0  0
   -1.1945    0.5058    2.0390 H   0  0  0  0  0  0  0  0  0  0  0  0
   -2.8436    0.6540    0.3745 C   0  0  0  0  0  0  0  0  0  0  0  0
   -3.5087    1.4241    0.4194 H   0  0  0  0  0  0  0  0  0  0  0  0
   -3.2775   -0.1334    1.0138 H   0  0  0  0  0  0  0  0  0  0  0  0
   -3.1518   -0.2765   -0.9285 O   0  0  0  0  0  0  0  0  0  0  0  0
  1  8  1  0  0  0  0
  1  3  1  0  0  0  0
  2  1  1  0  0  0  0
  4 14  1  0  0  0  0
  4  5  1  0  0  0  0
  4  1  1  0  0  0  0
  6  4  1  0  0  0  0
  8 10  1  0  0  0  0
  9  8  1  0  0  0  0
 11 12  1  0  0  0  0
 11  8  1  0  0  0  0
 11 13  1  0  0  0  0
 14 11  1  0  0  0  0
M  END
$$$$
Title Card Required
 OpenBabel06272217483D

 14 13  0  0  0  0  0  0  0  0999 V2000
   -1.5323   -1.1829    0.5403 C   0  0  0  0  0  0  0  0  0  0  0  0
   -0.5335   -1.4293    0.5322 H   0  0  0  0  0  0  0  0  0  0  0  0
   -2.0465   -1.8604    1.2916 H   0  0  0  0  0  0  0  0  0  0  0  0
   -2.0078   -1.2735   -0.9546 C   0  0  0  0  0  0  0  0  0  0  0  0
   -2.6293   -2.2721   -0.8589 H   0  0  0  0  0  0  0  0  0  0  0  0
   -1.2868   -1.3532   -1.8198 H   0  0  0  0  0  0  0  0  0  0  0  0
    2.0234    0.3380    0.0128 Br  0  0  0  0  0 15  0  0  0  0  0  0
   -1.4485    0.2920    0.9601 C   0  0  0  0  0  0  0  0  0  0  0  0
   -0.6812    0.8448    0.2988 H   0  0  0  0  0  0  0  0  0  0  0  0
   -1.2001    0.4993    1.9825 H   0  0  0  0  0  0  0  0  0  0  0  0
   -2.8364    0.6413    0.3825 C   0  0  0  0  0  0  0  0  0  0  0  0
   -3.5108    1.4488    0.3960 H   0  0  0  0  0  0  0  0  0  0  0  0
   -3.3159   -0.1429    1.0355 H   0  0  0  0  0  0  0  0  0  0  0  0
   -3.1547   -0.2561   -0.9397 O   0  0  0  0  0  0  0  0  0  0  0  0
  1  8  1  0  0  0  0
  1  3  1  0  0  0  0
  2  1  1  0  0  0  0
  4 14  1  0  0  0  0
  4  5  1  0  0  0  0
  4  1  1  0  0  0  0
  6  4  1  0  0  0  0
  8 10  1  0  0  0  0
  9  8  1  0  0  0  0
 11 12  1  0  0  0  0
 11  8  1  0  0  0  0
 11 13  1  0  0  0  0
 14 11  1  0  0  0  0
M  END
$$$$
Title Card Required
 OpenBabel06272217483D

 14 13  0  0  0  0  0  0  0  0999 V2000
   -1.5198   -1.1913    0.5507 C   0  0  0  0  0  0  0  0  0  0  0  0
   -0.4643   -1.3625    0.6039 H   0  0  0  0  0  0  0  0  0  0  0  0
   -2.0901   -1.8319    1.2522 H   0  0  0  0  0  0  0  0  0  0  0  0
   -2.0000   -1.2832   -0.9586 C   0  0  0  0  0  0  0  0  0  0  0  0
   -2.5808   -2.2692   -0.8474 H   0  0  0  0  0  0  0  0  0  0  0  0
   -1.2905   -1.3486   -1.7820 H   0  0  0  0  0  0  0  0  0  0  0  0
    2.0146    0.3373    0.0124 Br  0  0  0  0  0 15  0  0  0  0  0  0
   -1.4225    0.2931    0.9573 C   0  0  0  0  0  0  0  0  0  0  0  0
   -0.6165    0.8459    0.3028 H   0  0  0  0  0  0  0  0  0  0  0  0
   -1.2116    0.4947    1.9428 H   0  0  0  0  0  0  0  0  0  0  0  0
   -2.8318    0.6215    0.3906 C   0  0  0  0  0  0  0  0  0  0  0  0
   -3.5158    1.5036    0.3661 H   0  0  0  0  0  0  0  0  0  0  0  0
   -3.3691   -0.1299    1.0578 H   0  0  0  0  0  0  0  0  0  0  0  0
   -3.1537   -0.2356   -0.9491 O   0  0  0  0  0  0  0  0  0  0  0  0
  1  2  1  0  0  0  0
  1  8  1  0  0  0  0
  1  3  1  0  0  0  0
  4 14  1  0  0  0  0
  4  5  1  0  0  0  0
  4  1  1  0  0  0  0
  6  4  1  0  0  0  0
  8 10  1  0  0  0  0
  9  8  1  0  0  0  0
 11  8  1  0  0  0  0
 11 13  1  0  0  0  0
 12 11  1  0  0  0  0
 14 11  1  0  0  0  0
M  END
$$$$
Title Card Required
 OpenBabel06272217483D

 14 13  0  0  0  0  0  0  0  0999 V2000
   -1.5049   -1.1984    0.5593 C   0  0  0  0  0  0  0  0  0  0  0  0
   -0.3798   -1.3191    0.6723 H   0  0  0  0  0  0  0  0  0  0  0  0
   -2.1319   -1.7996    1.2097 H   0  0  0  0  0  0  0  0  0  0  0  0
   -1.9980   -1.2929   -0.9574 C   0  0  0  0  0  0  0  0  0  0  0  0
   -2.5243   -2.2531   -0.8532 H   0  0  0  0  0  0  0  0  0  0  0  0
   -1.2907   -1.3310   -1.7465 H   0  0  0  0  0  0  0  0  0  0  0  0
    2.0062    0.3365    0.0121 Br  0  0  0  0  0 15  0  0  0  0  0  0
   -1.3987    0.2956    0.9465 C   0  0  0  0  0  0  0  0  0  0  0  0
   -0.5675    0.8281    0.3249 H   0  0  0  0  0  0  0  0  0  0  0  0
   -1.2225    0.4966    1.9430 H   0  0  0  0  0  0  0  0  0  0  0  0
   -2.8310    0.5981    0.3986 C   0  0  0  0  0  0  0  0  0  0  0  0
   -3.5036    1.5584    0.3319 H   0  0  0  0  0  0  0  0  0  0  0  0
   -3.4273   -0.0961    1.0772 H   0  0  0  0  0  0  0  0  0  0  0  0
   -3.1490   -0.2151   -0.9567 O   0  0  0  0  0  0  0  0  0  0  0  0
  1  2  1  0  0  0  0
  1  8  1  0  0  0  0
  1  3  1  0  0  0  0
  4 14  1  0  0  0  0
  4  5  1  0  0  0  0
  4  1  1  0  0  0  0
  6  4  1  0  0  0  0
  8 10  1  0  0  0  0
  9  8  1  0  0  0  0
 11  8  1  0  0  0  0
 11 13  1  0  0  0  0
 12 11  1  0  0  0  0
 14 11  1  0  0  0  0
M  END
$$$$
Title Card Required
 OpenBabel06272217483D

 14 13  0  0  0  0  0  0  0  0999 V2000
   -1.4855   -1.2039    0.5659 C   0  0  0  0  0  0  0  0  0  0  0  0
   -0.3084   -1.2969    0.7344 H   0  0  0  0  0  0  0  0  0  0  0  0
   -2.1735   -1.7698    1.1724 H   0  0  0  0  0  0  0  0  0  0  0  0
   -2.0002   -1.3014   -0.9508 C   0  0  0  0  0  0  0  0  0  0  0  0
   -2.4716   -2.2391   -0.8733 H   0  0  0  0  0  0  0  0  0  0  0  0
   -1.2790   -1.3019   -1.7241 H   0  0  0  0  0  0  0  0  0  0  0  0
    1.9979    0.3358    0.0118 Br  0  0  0  0  0 15  0  0  0  0  0  0
   -1.3778    0.2990    0.9294 C   0  0  0  0  0  0  0  0  0  0  0  0
   -0.5340    0.7958    0.3596 H   0  0  0  0  0  0  0  0  0  0  0  0
   -1.2328    0.5036    1.9779 H   0  0  0  0  0  0  0  0  0  0  0  0
   -2.8342    0.5733    0.4060 C   0  0  0  0  0  0  0  0  0  0  0  0
   -3.4652    1.5959    0.2959 H   0  0  0  0  0  0  0  0  0  0  0  0
   -3.4840   -0.0459    1.0932 H   0  0  0  0  0  0  0  0  0  0  0  0
   -3.1407   -0.1951   -0.9625 O   0  0  0  0  0  0  0  0  0  0  0  0
  1  2  1  0  0  0  0
  1  8  1  0  0  0  0
  1  3  1  0  0  0  0
  4  5  1  0  0  0  0
  4  1  1  0  0  0  0
  6  4  1  0  0  0  0
  8 10  1  0  0  0  0
  9  8  1  0  0  0  0
 11  8  1  0  0  0  0
 11 13  1  0  0  0  0
 12 11  1  0  0  0  0
 14  4  1  0  0  0  0
 14 11  1  0  0  0  0
M  END
$$$$
Title Card Required
 OpenBabel06272217483D

 14 13  0  0  0  0  0  0  0  0999 V2000
   -1.4609   -1.2077    0.5707 C   0  0  0  0  0  0  0  0  0  0  0  0
   -0.2650   -1.2956    0.7868 H   0  0  0  0  0  0  0  0  0  0  0  0
   -2.2144   -1.7445    1.1449 H   0  0  0  0  0  0  0  0  0  0  0  0
   -2.0049   -1.3069   -0.9393 C   0  0  0  0  0  0  0  0  0  0  0  0
   -2.4349   -2.2446   -0.9045 H   0  0  0  0  0  0  0  0  0  0  0  0
   -1.2556   -1.2620   -1.7157 H   0  0  0  0  0  0  0  0  0  0  0  0
    1.9898    0.3351    0.0114 Br  0  0  0  0  0 15  0  0  0  0  0  0
   -1.3601    0.3027    0.9090 C   0  0  0  0  0  0  0  0  0  0  0  0
   -0.5105    0.7568    0.3985 H   0  0  0  0  0  0  0  0  0  0  0  0
   -1.2456    0.5109    2.0226 H   0  0  0  0  0  0  0  0  0  0  0  0
   -2.8409    0.5491    0.4119 C   0  0  0  0  0  0  0  0  0  0  0  0
   -3.3999    1.6092    0.2606 H   0  0  0  0  0  0  0  0  0  0  0  0
   -3.5357    0.0147    1.1066 H   0  0  0  0  0  0  0  0  0  0  0  0
   -3.1291   -0.1757   -0.9661 O   0  0  0  0  0  0  0  0  0  0  0  0
  1  2  1  0  0  0  0
  1  8  1  0  0  0  0
  1  3  1  0  0  0  0
  4  5  1  0  0  0  0
  4  1  1  0  0  0  0
  6  4  1  0  0  0  0
  8 10  1  0  0  0  0
  9  8  1  0  0  0  0
 11  8  1  0  0  0  0
 11 13  1  0  0  0  0
 12 11  1  0  0  0  0
 14  4  1  0  0  0  0
 14 11  1  0  0  0  0
M  END
$$$$
Title Card Required
 OpenBabel06272217483D

 14 13  0  0  0  0  0  0  0  0999 V2000
   -1.4322   -1.2099    0.5739 C   0  0  0  0  0  0  0  0  0  0  0  0
   -0.2542   -1.3150    0.8266 H   0  0  0  0  0  0  0  0  0  0  0  0
   -2.2491   -1.7223    1.1272 H   0  0  0  0  0  0  0  0  0  0  0  0
   -2.0103   -1.3085   -0.9245 C   0  0  0  0  0  0  0  0  0  0  0  0
   -2.4195   -2.2774   -0.9449 H   0  0  0  0  0  0  0  0  0  0  0  0
   -1.2288   -1.2131   -1.7133 H   0  0  0  0  0  0  0  0  0  0  0  0
    1.9817    0.3344    0.0111 Br  0  0  0  0  0 15  0  0  0  0  0  0
   -1.3468    0.3061    0.8889 C   0  0  0  0  0  0  0  0  0  0  0  0
   -0.4870    0.7214    0.4311 H   0  0  0  0  0  0  0  0  0  0  0  0
   -1.2621    0.5139    2.0530 H   0  0  0  0  0  0  0  0  0  0  0  0
   -2.8501    0.5267    0.4155 C   0  0  0  0  0  0  0  0  0  0  0  0
   -3.3124    1.5978    0.2281 H   0  0  0  0  0  0  0  0  0  0  0  0
   -3.5803    0.0788    1.1192 H   0  0  0  0  0  0  0  0  0  0  0  0
   -3.1143   -0.1574   -0.9674 O   0  0  0  0  0  0  0  0  0  0  0  0
  1  2  1  0  0  0  0
  1  8  1  0  0  0  0
  1  3  1  0  0  0  0
  4  1  1  0  0  0  0
  5  4  1  0  0  0  0
  6  4  1  0  0  0  0
  8 10  1  0  0  0  0
  9  8  1  0  0  0  0
 11  8  1  0  0  0  0
 11 13  1  0  0  0  0
 12 11  1  0  0  0  0
 14  4  1  0  0  0  0
 14 11  1  0  0  0  0
M  END
$$$$
Title Card Required
 OpenBabel06272217483D

 14 13  0  0  0  0  0  0  0  0999 V2000
   -1.4012   -1.2111    0.5762 C   0  0  0  0  0  0  0  0  0  0  0  0
   -0.2731   -1.3535    0.8522 H   0  0  0  0  0  0  0  0  0  0  0  0
   -2.2702   -1.7003    1.1175 H   0  0  0  0  0  0  0  0  0  0  0  0
   -2.0150   -1.3068   -0.9080 C   0  0  0  0  0  0  0  0  0  0  0  0
   -2.4207   -2.3260   -0.9922 H   0  0  0  0  0  0  0  0  0  0  0  0
   -1.2090   -1.1590   -1.7072 H   0  0  0  0  0  0  0  0  0  0  0  0
    1.9739    0.3337    0.0108 Br  0  0  0  0  0 15  0  0  0  0  0  0
   -1.3391    0.3081    0.8714 C   0  0  0  0  0  0  0  0  0  0  0  0
   -0.4547    0.6983    0.4489 H   0  0  0  0  0  0  0  0  0  0  0  0
   -1.2812    0.5109    2.0566 H   0  0  0  0  0  0  0  0  0  0  0  0
   -2.8604    0.5072    0.4162 C   0  0  0  0  0  0  0  0  0  0  0  0
   -3.2109    1.5673    0.1996 H   0  0  0  0  0  0  0  0  0  0  0  0
   -3.6176    0.1399    1.1327 H   0  0  0  0  0  0  0  0  0  0  0  0
   -3.0969   -0.1408   -0.9663 O   0  0  0  0  0  0  0  0  0  0  0  0
  1  2  1  0  0  0  0
  1  8  1  0  0  0  0
  1  3  1  0  0  0  0
  4  1  1  0  0  0  0
  5  4  1  0  0  0  0
  6  4  1  0  0  0  0
  8 10  1  0  0  0  0
  9  8  1  0  0  0  0
 11  8  1  0  0  0  0
 11 13  1  0  0  0  0
 12 11  1  0  0  0  0
 14  4  1  0  0  0  0
 14 11  1  0  0  0  0
M  END
$$$$
Title Card Required
 OpenBabel06272217483D

 14 13  0  0  0  0  0  0  0  0999 V2000
   -1.3700   -1.2115    0.5778 C   0  0  0  0  0  0  0  0  0  0  0  0
   -0.3119   -1.4093    0.8646 H   0  0  0  0  0  0  0  0  0  0  0  0
   -2.2722   -1.6766    1.1136 H   0  0  0  0  0  0  0  0  0  0  0  0
   -2.0187   -1.3031   -0.8911 C   0  0  0  0  0  0  0  0  0  0  0  0
   -2.4293   -2.3701   -1.0430 H   0  0  0  0  0  0  0  0  0  0  0  0
   -1.2030   -1.1037   -1.6911 H   0  0  0  0  0  0  0  0  0  0  0  0
    1.9662    0.3329    0.0105 Br  0  0  0  0  0 15  0  0  0  0  0  0
   -1.3367    0.3085    0.8573 C   0  0  0  0  0  0  0  0  0  0  0  0
   -0.4130    0.6903    0.4505 H   0  0  0  0  0  0  0  0  0  0  0  0
   -1.3014    0.5021    2.0315 H   0  0  0  0  0  0  0  0  0  0  0  0
   -2.8706    0.4907    0.4139 C   0  0  0  0  0  0  0  0  0  0  0  0
   -3.1042    1.5288    0.1748 H   0  0  0  0  0  0  0  0  0  0  0  0
   -3.6477    0.1945    1.1472 H   0  0  0  0  0  0  0  0  0  0  0  0
   -3.0771   -0.1262   -0.9625 O   0  0  0  0  0  0  0  0  0  0  0  0
  1  8  1  0  0  0  0
  1  2  1  0  0  0  0
  1  3  1  0  0  0  0
  4  1  1  0  0  0  0
  5  4  1  0  0  0  0
  6  4  1  0  0  0  0
  8 10  1  0  0  0  0
  9  8  1  0  0  0  0
 11  8  1  0  0  0  0
 11 13  1  0  0  0  0
 12 11  1  0  0  0  0
 14  4  1  0  0  0  0
 14 11  1  0  0  0  0
M  END
$$$$
Title Card Required
 OpenBabel06272217483D

 14 13  0  0  0  0  0  0  0  0999 V2000
   -1.3404   -1.2111    0.5789 C   0  0  0  0  0  0  0  0  0  0  0  0
   -0.3559   -1.4827    0.8667 H   0  0  0  0  0  0  0  0  0  0  0  0
   -2.2527   -1.6510    1.1150 H   0  0  0  0  0  0  0  0  0  0  0  0
   -2.0211   -1.2985   -0.8748 C   0  0  0  0  0  0  0  0  0  0  0  0
   -2.4386   -2.3942   -1.0936 H   0  0  0  0  0  0  0  0  0  0  0  0
   -1.2132   -1.0502   -1.6631 H   0  0  0  0  0  0  0  0  0  0  0  0
    1.9585    0.3322    0.0102 Br  0  0  0  0  0 15  0  0  0  0  0  0
   -1.3387    0.3071    0.8461 C   0  0  0  0  0  0  0  0  0  0  0  0
   -0.3705    0.6946    0.4396 H   0  0  0  0  0  0  0  0  0  0  0  0
   -1.3213    0.4886    1.9817 H   0  0  0  0  0  0  0  0  0  0  0  0
   -2.8798    0.4765    0.4087 C   0  0  0  0  0  0  0  0  0  0  0  0
   -2.9991    1.4967    0.1518 H   0  0  0  0  0  0  0  0  0  0  0  0
   -3.6709    0.2418    1.1612 H   0  0  0  0  0  0  0  0  0  0  0  0
   -3.0551   -0.1137   -0.9562 O   0  0  0  0  0  0  0  0  0  0  0  0
  1  8  1  0  0  0  0
  1  2  1  0  0  0  0
  1  3  1  0  0  0  0
  4  1  1  0  0  0  0
  5  4  1  0  0  0  0
  6  4  1  0  0  0  0
  8 10  1  0  0  0  0
  9  8  1  0  0  0  0
 11  8  1  0  0  0  0
 11 13  1  0  0  0  0
 12 11  1  0  0  0  0
 14  4  1  0  0  0  0
 14 11  1  0  0  0  0
M  END
$$$$
Title Card Required
 OpenBabel06272217483D

 14 13  0  0  0  0  0  0  0  0999 V2000
   -1.3143   -1.2098    0.5791 C   0  0  0  0  0  0  0  0  0  0  0  0
   -0.3866   -1.5758    0.8626 H   0  0  0  0  0  0  0  0  0  0  0  0
   -2.2126   -1.6248    1.1227 H   0  0  0  0  0  0  0  0  0  0  0  0
   -2.0222   -1.2935   -0.8594 C   0  0  0  0  0  0  0  0  0  0  0  0
   -2.4445   -2.3896   -1.1400 H   0  0  0  0  0  0  0  0  0  0  0  0
   -1.2383   -1.0006   -1.6244 H   0  0  0  0  0  0  0  0  0  0  0  0
    1.9508    0.3314    0.0099 Br  0  0  0  0  0 15  0  0  0  0  0  0
   -1.3438    0.3039    0.8367 C   0  0  0  0  0  0  0  0  0  0  0  0
   -0.3391    0.7072    0.4207 H   0  0  0  0  0  0  0  0  0  0  0  0
   -1.3398    0.4726    1.9171 H   0  0  0  0  0  0  0  0  0  0  0  0
   -2.8873    0.4639    0.4008 C   0  0  0  0  0  0  0  0  0  0  0  0
   -2.9003    1.4840    0.1290 H   0  0  0  0  0  0  0  0  0  0  0  0
   -3.6864    0.2821    1.1722 H   0  0  0  0  0  0  0  0  0  0  0  0
   -3.0309   -0.1034   -0.9473 O   0  0  0  0  0  0  0  0  0  0  0  0
  1  8  1  0  0  0  0
  1  2  1  0  0  0  0
  1  3  1  0  0  0  0
  4  1  1  0  0  0  0
  5  4  1  0  0  0  0
  6  4  1  0  0  0  0
  8 10  1  0  0  0  0
  9  8  1  0  0  0  0
 11  8  1  0  0  0  0
 11 13  1  0  0  0  0
 12 11  1  0  0  0  0
 14  4  1  0  0  0  0
 14 11  1  0  0  0  0
M  END
$$$$
Title Card Required
 OpenBabel06272217483D

 14 13  0  0  0  0  0  0  0  0999 V2000
   -1.2931   -1.2073    0.5782 C   0  0  0  0  0  0  0  0  0  0  0  0
   -0.3930   -1.6881    0.8545 H   0  0  0  0  0  0  0  0  0  0  0  0
   -2.1571   -1.6009    1.1390 H   0  0  0  0  0  0  0  0  0  0  0  0
   -2.0221   -1.2883   -0.8454 C   0  0  0  0  0  0  0  0  0  0  0  0
   -2.4454   -2.3533   -1.1783 H   0  0  0  0  0  0  0  0  0  0  0  0
   -1.2728   -0.9569   -1.5803 H   0  0  0  0  0  0  0  0  0  0  0  0
    1.9430    0.3306    0.0096 Br  0  0  0  0  0 15  0  0  0  0  0  0
   -1.3506    0.2987    0.8277 C   0  0  0  0  0  0  0  0  0  0  0  0
   -0.3295    0.7242    0.3981 H   0  0  0  0  0  0  0  0  0  0  0  0
   -1.3552    0.4577    1.8568 H   0  0  0  0  0  0  0  0  0  0  0  0
   -2.8928    0.4533    0.3907 C   0  0  0  0  0  0  0  0  0  0  0  0
   -2.8120    1.4942    0.1075 H   0  0  0  0  0  0  0  0  0  0  0  0
   -3.6931    0.3150    1.1768 H   0  0  0  0  0  0  0  0  0  0  0  0
   -3.0049   -0.0958   -0.9358 O   0  0  0  0  0  0  0  0  0  0  0  0
  1  8  1  0  0  0  0
  1  2  1  0  0  0  0
  1  3  1  0  0  0  0
  4  1  1  0  0  0  0
  5  4  1  0  0  0  0
  6  4  1  0  0  0  0
  8 10  1  0  0  0  0
  9  8  1  0  0  0  0
 11  8  1  0  0  0  0
 11 13  1  0  0  0  0
 12 11  1  0  0  0  0
 14  4  1  0  0  0  0
 14 11  1  0  0  0  0
M  END
$$$$
Title Card Required
 OpenBabel06272217483D

 14 13  0  0  0  0  0  0  0  0999 V2000
   -1.2759   -1.2041    0.5760 C   0  0  0  0  0  0  0  0  0  0  0  0
   -0.3824   -1.8110    0.8394 H   0  0  0  0  0  0  0  0  0  0  0  0
   -2.0953   -1.5831    1.1674 H   0  0  0  0  0  0  0  0  0  0  0  0
   -2.0212   -1.2828   -0.8326 C   0  0  0  0  0  0  0  0  0  0  0  0
   -2.4417   -2.2887   -1.2059 H   0  0  0  0  0  0  0  0  0  0  0  0
   -1.3070   -0.9191   -1.5393 H   0  0  0  0  0  0  0  0  0  0  0  0
    1.9351    0.3298    0.0093 Br  0  0  0  0  0 15  0  0  0  0  0  0
   -1.3581    0.2913    0.8173 C   0  0  0  0  0  0  0  0  0  0  0  0
   -0.3481    0.7430    0.3746 H   0  0  0  0  0  0  0  0  0  0  0  0
   -1.3664    0.4486    1.8247 H   0  0  0  0  0  0  0  0  0  0  0  0
   -2.8956    0.4462    0.3784 C   0  0  0  0  0  0  0  0  0  0  0  0
   -2.7379    1.5189    0.0914 H   0  0  0  0  0  0  0  0  0  0  0  0
   -3.6912    0.3405    1.1725 H   0  0  0  0  0  0  0  0  0  0  0  0
   -2.9776   -0.0910   -0.9221 O   0  0  0  0  0  0  0  0  0  0  0  0
  1  8  1  0  0  0  0
  1  2  1  0  0  0  0
  1  3  1  0  0  0  0
  4  1  1  0  0  0  0
  5  4  1  0  0  0  0
  6  4  1  0  0  0  0
  8 10  1  0  0  0  0
  9  8  1  0  0  0  0
 11  8  1  0  0  0  0
 11 13  1  0  0  0  0
 12 11  1  0  0  0  0
 14  4  1  0  0  0  0
 14 11  1  0  0  0  0
M  END
$$$$
Title Card Required
 OpenBabel06272217483D

 14 13  0  0  0  0  0  0  0  0999 V2000
   -1.2610   -1.2015    0.5728 C   0  0  0  0  0  0  0  0  0  0  0  0
   -0.3716   -1.9281    0.8118 H   0  0  0  0  0  0  0  0  0  0  0  0
   -2.0363   -1.5748    1.2114 H   0  0  0  0  0  0  0  0  0  0  0  0
   -2.0196   -1.2766   -0.8205 C   0  0  0  0  0  0  0  0  0  0  0  0
   -2.4365   -2.2060   -1.2233 H   0  0  0  0  0  0  0  0  0  0  0  0
   -1.3291   -0.8855   -1.5109 H   0  0  0  0  0  0  0  0  0  0  0  0
    1.9272    0.3290    0.0090 Br  0  0  0  0  0 15  0  0  0  0  0  0
   -1.3657    0.2820    0.8045 C   0  0  0  0  0  0  0  0  0  0  0  0
   -0.3967    0.7623    0.3515 H   0  0  0  0  0  0  0  0  0  0  0  0
   -1.3726    0.4482    1.8336 H   0  0  0  0  0  0  0  0  0  0  0  0
   -2.8950    0.4439    0.3642 C   0  0  0  0  0  0  0  0  0  0  0  0
   -2.6821    1.5458    0.0850 H   0  0  0  0  0  0  0  0  0  0  0  0
   -3.6819    0.3582    1.1585 H   0  0  0  0  0  0  0  0  0  0  0  0
   -2.9495   -0.0893   -0.9065 O   0  0  0  0  0  0  0  0  0  0  0  0
  1  8  1  0  0  0  0
  1  2  1  0  0  0  0
  1  3  1  0  0  0  0
  4  1  1  0  0  0  0
  5  4  1  0  0  0  0
  6  4  1  0  0  0  0
  8 10  1  0  0  0  0
  9  8  1  0  0  0  0
 11  8  1  0  0  0  0
 11 13  1  0  0  0  0
 12 11  1  0  0  0  0
 14  4  1  0  0  0  0
 14 11  1  0  0  0  0
M  END
$$$$
Title Card Required
 OpenBabel06272217483D

 14 13  0  0  0  0  0  0  0  0999 V2000
   -1.2473   -1.2013    0.5686 C   0  0  0  0  0  0  0  0  0  0  0  0
   -0.3735   -2.0216    0.7683 H   0  0  0  0  0  0  0  0  0  0  0  0
   -1.9853   -1.5774    1.2711 H   0  0  0  0  0  0  0  0  0  0  0  0
   -2.0172   -1.2685   -0.8084 C   0  0  0  0  0  0  0  0  0  0  0  0
   -2.4371   -2.1242   -1.2349 H   0  0  0  0  0  0  0  0  0  0  0  0
   -1.3304   -0.8554   -1.5012 H   0  0  0  0  0  0  0  0  0  0  0  0
    1.9192    0.3281    0.0086 Br  0  0  0  0  0 15  0  0  0  0  0  0
   -1.3730    0.2711    0.7910 C   0  0  0  0  0  0  0  0  0  0  0  0
   -0.4727    0.7824    0.3288 H   0  0  0  0  0  0  0  0  0  0  0  0
   -1.3727    0.4555    1.8726 H   0  0  0  0  0  0  0  0  0  0  0  0
   -2.8901    0.4479    0.3485 C   0  0  0  0  0  0  0  0  0  0  0  0
   -2.6491    1.5653    0.0909 H   0  0  0  0  0  0  0  0  0  0  0  0
   -3.6681    0.3676    1.1358 H   0  0  0  0  0  0  0  0  0  0  0  0
   -2.9213   -0.0906   -0.8896 O   0  0  0  0  0  0  0  0  0  0  0  0
  1  2  1  0  0  0  0
  1  8  1  0  0  0  0
  1  3  1  0  0  0  0
  4  1  1  0  0  0  0
  5  4  1  0  0  0  0
  6  4  1  0  0  0  0
  8 10  1  0  0  0  0
  9  8  1  0  0  0  0
 11  8  1  0  0  0  0
 11 13  1  0  0  0  0
 12 11  1  0  0  0  0
 14  4  1  0  0  0  0
 14 11  1  0  0  0  0
M  END
$$$$
Title Card Required
 OpenBabel06272217483D

 14 13  0  0  0  0  0  0  0  0999 V2000
   -1.2348   -1.2050    0.5639 C   0  0  0  0  0  0  0  0  0  0  0  0
   -0.3924   -2.0783    0.7089 H   0  0  0  0  0  0  0  0  0  0  0  0
   -1.9407   -1.5891    1.3399 H   0  0  0  0  0  0  0  0  0  0  0  0
   -2.0128   -1.2569   -0.7961 C   0  0  0  0  0  0  0  0  0  0  0  0
   -2.4528   -2.0666   -1.2488 H   0  0  0  0  0  0  0  0  0  0  0  0
   -1.3096   -0.8320   -1.5082 H   0  0  0  0  0  0  0  0  0  0  0  0
    1.9110    0.3272    0.0083 Br  0  0  0  0  0 15  0  0  0  0  0  0
   -1.3801    0.2594    0.7794 C   0  0  0  0  0  0  0  0  0  0  0  0
   -0.5672    0.8059    0.3038 H   0  0  0  0  0  0  0  0  0  0  0  0
   -1.3663    0.4670    1.9156 H   0  0  0  0  0  0  0  0  0  0  0  0
   -2.8803    0.4587    0.3321 C   0  0  0  0  0  0  0  0  0  0  0  0
   -2.6414    1.5735    0.1091 H   0  0  0  0  0  0  0  0  0  0  0  0
   -3.6537    0.3678    1.1071 H   0  0  0  0  0  0  0  0  0  0  0  0
   -2.8936   -0.0950   -0.8724 O   0  0  0  0  0  0  0  0  0  0  0  0
  1  2  1  0  0  0  0
  1  8  1  0  0  0  0
  1  3  1  0  0  0  0
  4  1  1  0  0  0  0
  5  4  1  0  0  0  0
  6  4  1  0  0  0  0
  8 10  1  0  0  0  0
  9  8  1  0  0  0  0
 11  8  1  0  0  0  0
 11 13  1  0  0  0  0
 12 11  1  0  0  0  0
 14  4  1  0  0  0  0
 14 11  1  0  0  0  0
M  END
$$$$
Title Card Required
 OpenBabel06272217483D

 14 13  0  0  0  0  0  0  0  0999 V2000
   -1.2245   -1.2134    0.5594 C   0  0  0  0  0  0  0  0  0  0  0  0
   -0.4251   -2.0918    0.6380 H   0  0  0  0  0  0  0  0  0  0  0  0
   -1.8983   -1.6053    1.4052 H   0  0  0  0  0  0  0  0  0  0  0  0
   -2.0055   -1.2416   -0.7844 C   0  0  0  0  0  0  0  0  0  0  0  0
   -2.4864   -2.0446   -1.2685 H   0  0  0  0  0  0  0  0  0  0  0  0
   -1.2739   -0.8219   -1.5228 H   0  0  0  0  0  0  0  0  0  0  0  0
    1.9030    0.3263    0.0079 Br  0  0  0  0  0 15  0  0  0  0  0  0
   -1.3875    0.2477    0.7725 C   0  0  0  0  0  0  0  0  0  0  0  0
   -0.6632    0.8371    0.2724 H   0  0  0  0  0  0  0  0  0  0  0  0
   -1.3537    0.4785    1.9398 H   0  0  0  0  0  0  0  0  0  0  0  0
   -2.8657    0.4759    0.3168 C   0  0  0  0  0  0  0  0  0  0  0  0
   -2.6585    1.5721    0.1361 H   0  0  0  0  0  0  0  0  0  0  0  0
   -3.6433    0.3585    1.0770 H   0  0  0  0  0  0  0  0  0  0  0  0
   -2.8677   -0.1022   -0.8562 O   0  0  0  0  0  0  0  0  0  0  0  0
  1  2  1  0  0  0  0
  1  8  1  0  0  0  0
  1  3  1  0  0  0  0
  4  1  1  0  0  0  0
  5  4  1  0  0  0  0
  6  4  1  0  0  0  0
  8 10  1  0  0  0  0
  9  8  1  0  0  0  0
 11  8  1  0  0  0  0
 11 13  1  0  0  0  0
 12 11  1  0  0  0  0
 14  4  1  0  0  0  0
 14 11  1  0  0  0  0
M  END
$$$$
Title Card Required
 OpenBabel06272217483D

 14 13  0  0  0  0  0  0  0  0999 V2000
   -1.2172   -1.2260    0.5559 C   0  0  0  0  0  0  0  0  0  0  0  0
   -0.4622   -2.0671    0.5614 H   0  0  0  0  0  0  0  0  0  0  0  0
   -1.8551   -1.6221    1.4558 H   0  0  0  0  0  0  0  0  0  0  0  0
   -1.9956   -1.2243   -0.7749 C   0  0  0  0  0  0  0  0  0  0  0  0
   -2.5285   -2.0468   -1.2872 H   0  0  0  0  0  0  0  0  0  0  0  0
   -1.2329   -0.8292   -1.5350 H   0  0  0  0  0  0  0  0  0  0  0  0
    1.8953    0.3255    0.0075 Br  0  0  0  0  0 15  0  0  0  0  0  0
   -1.3951    0.2366    0.7716 C   0  0  0  0  0  0  0  0  0  0  0  0
   -0.7465    0.8781    0.2319 H   0  0  0  0  0  0  0  0  0  0  0  0
   -1.3365    0.4878    1.9356 H   0  0  0  0  0  0  0  0  0  0  0  0
   -2.8474    0.4977    0.3041 C   0  0  0  0  0  0  0  0  0  0  0  0
   -2.6950    1.5690    0.1660 H   0  0  0  0  0  0  0  0  0  0  0  0
   -3.6389    0.3410    1.0483 H   0  0  0  0  0  0  0  0  0  0  0  0
   -2.8445   -0.1113   -0.8423 O   0  0  0  0  0  0  0  0  0  0  0  0
  1  2  1  0  0  0  0
  1  8  1  0  0  0  0
  1  3  1  0  0  0  0
  4  1  1  0  0  0  0
  5  4  1  0  0  0  0
  6  4  1  0  0  0  0
  8 10  1  0  0  0  0
  9  8  1  0  0  0  0
 11  8  1  0  0  0  0
 11 13  1  0  0  0  0
 12 11  1  0  0  0  0
 14  4  1  0  0  0  0
 14 11  1  0  0  0  0
M  END
$$$$
Title Card Required
 OpenBabel06272217483D

 14 13  0  0  0  0  0  0  0  0999 V2000
   -1.2136   -1.2412    0.5534 C   0  0  0  0  0  0  0  0  0  0  0  0
   -0.4902   -2.0177    0.4827 H   0  0  0  0  0  0  0  0  0  0  0  0
   -1.8100   -1.6379    1.4870 H   0  0  0  0  0  0  0  0  0  0  0  0
   -1.9840   -1.2070   -0.7689 C   0  0  0  0  0  0  0  0  0  0  0  0
   -2.5668   -2.0557   -1.2958 H   0  0  0  0  0  0  0  0  0  0  0  0
   -1.1933   -0.8543   -1.5390 H   0  0  0  0  0  0  0  0  0  0  0  0
    1.8877    0.3246    0.0072 Br  0  0  0  0  0 15  0  0  0  0  0  0
   -1.4025    0.2266    0.7761 C   0  0  0  0  0  0  0  0  0  0  0  0
   -0.8146    0.9245    0.1849 H   0  0  0  0  0  0  0  0  0  0  0  0
   -1.3156    0.4944    1.9048 H   0  0  0  0  0  0  0  0  0  0  0  0
   -2.8265    0.5222    0.2951 C   0  0  0  0  0  0  0  0  0  0  0  0
   -2.7448    1.5753    0.1935 H   0  0  0  0  0  0  0  0  0  0  0  0
   -3.6395    0.3167    1.0213 H   0  0  0  0  0  0  0  0  0  0  0  0
   -2.8239   -0.1217   -0.8310 O   0  0  0  0  0  0  0  0  0  0  0  0
  1  8  1  0  0  0  0
  1  3  1  0  0  0  0
  2  1  1  0  0  0  0
  4  1  1  0  0  0  0
  5  4  1  0  0  0  0
  6  4  1  0  0  0  0
  8 10  1  0  0  0  0
  9  8  1  0  0  0  0
 11  8  1  0  0  0  0
 11 13  1  0  0  0  0
 12 11  1  0  0  0  0
 14  4  1  0  0  0  0
 14 11  1  0  0  0  0
M  END
$$$$
Title Card Required
 OpenBabel06272217483D

 14 13  0  0  0  0  0  0  0  0999 V2000
   -1.2147   -1.2575    0.5521 C   0  0  0  0  0  0  0  0  0  0  0  0
   -0.4912   -1.9611    0.4020 H   0  0  0  0  0  0  0  0  0  0  0  0
   -1.7628   -1.6535    1.4978 H   0  0  0  0  0  0  0  0  0  0  0  0
   -1.9709   -1.1913   -0.7668 C   0  0  0  0  0  0  0  0  0  0  0  0
   -2.5930   -2.0599   -1.2884 H   0  0  0  0  0  0  0  0  0  0  0  0
   -1.1576   -0.8960   -1.5323 H   0  0  0  0  0  0  0  0  0  0  0  0
    1.8802    0.3238    0.0068 Br  0  0  0  0  0 15  0  0  0  0  0  0
   -1.4089    0.2186    0.7847 C   0  0  0  0  0  0  0  0  0  0  0  0
   -0.8716    0.9672    0.1377 H   0  0  0  0  0  0  0  0  0  0  0  0
   -1.2908    0.4993    1.8542 H   0  0  0  0  0  0  0  0  0  0  0  0
   -2.8040    0.5479    0.2902 C   0  0  0  0  0  0  0  0  0  0  0  0
   -2.8040    1.6009    0.2150 H   0  0  0  0  0  0  0  0  0  0  0  0
   -3.6424    0.2871    0.9940 H   0  0  0  0  0  0  0  0  0  0  0  0
   -2.8055   -0.1328   -0.8224 O   0  0  0  0  0  0  0  0  0  0  0  0
  1  8  1  0  0  0  0
  1  3  1  0  0  0  0
  2  1  1  0  0  0  0
  4  1  1  0  0  0  0
  5  4  1  0  0  0  0
  6  4  1  0  0  0  0
  8 10  1  0  0  0  0
  9  8  1  0  0  0  0
 11  8  1  0  0  0  0
 11 13  1  0  0  0  0
 12 11  1  0  0  0  0
 14  4  1  0  0  0  0
 14 11  1  0  0  0  0
M  END
$$$$
Title Card Required
 OpenBabel06272217483D

 14 13  0  0  0  0  0  0  0  0999 V2000
   -1.2211   -1.2729    0.5521 C   0  0  0  0  0  0  0  0  0  0  0  0
   -0.4494   -1.9116    0.3188 H   0  0  0  0  0  0  0  0  0  0  0  0
   -1.7155   -1.6711    1.4895 H   0  0  0  0  0  0  0  0  0  0  0  0
   -1.9567   -1.1785   -0.7688 C   0  0  0  0  0  0  0  0  0  0  0  0
   -2.6016   -2.0543   -1.2630 H   0  0  0  0  0  0  0  0  0  0  0  0
   -1.1273   -0.9509   -1.5154 H   0  0  0  0  0  0  0  0  0  0  0  0
    1.8727    0.3229    0.0063 Br  0  0  0  0  0 15  0  0  0  0  0  0
   -1.4135    0.2134    0.7953 C   0  0  0  0  0  0  0  0  0  0  0  0
   -0.9191    0.9947    0.0991 H   0  0  0  0  0  0  0  0  0  0  0  0
   -1.2612    0.5055    1.7988 H   0  0  0  0  0  0  0  0  0  0  0  0
   -2.7811    0.5736    0.2899 C   0  0  0  0  0  0  0  0  0  0  0  0
   -2.8689    1.6469    0.2283 H   0  0  0  0  0  0  0  0  0  0  0  0
   -3.6440    0.2553    0.9653 H   0  0  0  0  0  0  0  0  0  0  0  0
   -2.7895   -0.1439   -0.8166 O   0  0  0  0  0  0  0  0  0  0  0  0
  1  8  1  0  0  0  0
  1  3  1  0  0  0  0
  2  1  1  0  0  0  0
  4  1  1  0  0  0  0
  5  4  1  0  0  0  0
  6  4  1  0  0  0  0
  8 10  1  0  0  0  0
  9  8  1  0  0  0  0
 11  8  1  0  0  0  0
 11 13  1  0  0  0  0
 12 11  1  0  0  0  0
 14  4  1  0  0  0  0
 14 11  1  0  0  0  0
M  END
$$$$
Title Card Required
 OpenBabel06272217483D

 14 13  0  0  0  0  0  0  0  0999 V2000
   -1.2318   -1.2869    0.5529 C   0  0  0  0  0  0  0  0  0  0  0  0
   -0.3690   -1.8664    0.2371 H   0  0  0  0  0  0  0  0  0  0  0  0
   -1.6720   -1.6944    1.4677 H   0  0  0  0  0  0  0  0  0  0  0  0
   -1.9420   -1.1700   -0.7743 C   0  0  0  0  0  0  0  0  0  0  0  0
   -2.5912   -2.0389   -1.2215 H   0  0  0  0  0  0  0  0  0  0  0  0
   -1.1019   -1.0131   -1.4916 H   0  0  0  0  0  0  0  0  0  0  0  0
    1.8652    0.3221    0.0059 Br  0  0  0  0  0 15  0  0  0  0  0  0
   -1.4159    0.2113    0.8054 C   0  0  0  0  0  0  0  0  0  0  0  0
   -0.9557    0.9996    0.0756 H   0  0  0  0  0  0  0  0  0  0  0  0
   -1.2243    0.5182    1.7608 H   0  0  0  0  0  0  0  0  0  0  0  0
   -2.7593    0.5983    0.2938 C   0  0  0  0  0  0  0  0  0  0  0  0
   -2.9348    1.7019    0.2327 H   0  0  0  0  0  0  0  0  0  0  0  0
   -3.6410    0.2252    0.9351 H   0  0  0  0  0  0  0  0  0  0  0  0
   -2.7762   -0.1536   -0.8135 O   0  0  0  0  0  0  0  0  0  0  0  0
  1  8  1  0  0  0  0
  1  3  1  0  0  0  0
  2  1  1  0  0  0  0
  4  1  1  0  0  0  0
  5  4  1  0  0  0  0
  6  4  1  0  0  0  0
  8 10  1  0  0  0  0
  9  8  1  0  0  0  0
 11  8  1  0  0  0  0
 11 13  1  0  0  0  0
 12 11  1  0  0  0  0
 14  4  1  0  0  0  0
 14 11  1  0  0  0  0
M  END
$$$$
Title Card Required
 OpenBabel06272217483D

 14 13  0  0  0  0  0  0  0  0999 V2000
   -1.2442   -1.2998    0.5532 C   0  0  0  0  0  0  0  0  0  0  0  0
   -0.2714   -1.8104    0.1655 H   0  0  0  0  0  0  0  0  0  0  0  0
   -1.6365   -1.7294    1.4418 H   0  0  0  0  0  0  0  0  0  0  0  0
   -1.9267   -1.1664   -0.7825 C   0  0  0  0  0  0  0  0  0  0  0  0
   -2.5635   -2.0176   -1.1675 H   0  0  0  0  0  0  0  0  0  0  0  0
   -1.0779   -1.0776   -1.4668 H   0  0  0  0  0  0  0  0  0  0  0  0
    1.8576    0.3212    0.0055 Br  0  0  0  0  0 15  0  0  0  0  0  0
   -1.4162    0.2120    0.8133 C   0  0  0  0  0  0  0  0  0  0  0  0
   -0.9782    0.9792    0.0688 H   0  0  0  0  0  0  0  0  0  0  0  0
   -1.1762    0.5425    1.7569 H   0  0  0  0  0  0  0  0  0  0  0  0
   -2.7397    0.6224    0.3016 C   0  0  0  0  0  0  0  0  0  0  0  0
   -2.9969    1.7510    0.2289 H   0  0  0  0  0  0  0  0  0  0  0  0
   -3.6312    0.2003    0.9036 H   0  0  0  0  0  0  0  0  0  0  0  0
   -2.7655   -0.1613   -0.8131 O   0  0  0  0  0  0  0  0  0  0  0  0
  1  8  1  0  0  0  0
  1  3  1  0  0  0  0
  2  1  1  0  0  0  0
  4  1  1  0  0  0  0
  5  4  1  0  0  0  0
  6  4  1  0  0  0  0
  8 10  1  0  0  0  0
  9  8  1  0  0  0  0
 11  8  1  0  0  0  0
 11 13  1  0  0  0  0
 12 11  1  0  0  0  0
 14  4  1  0  0  0  0
 14 11  1  0  0  0  0
M  END
$$$$
Title Card Required
 OpenBabel06272217483D

 14 13  0  0  0  0  0  0  0  0999 V2000
   -1.2554   -1.3117    0.5514 C   0  0  0  0  0  0  0  0  0  0  0  0
   -0.1806   -1.7322    0.1159 H   0  0  0  0  0  0  0  0  0  0  0  0
   -1.6133   -1.7832    1.4222 H   0  0  0  0  0  0  0  0  0  0  0  0
   -1.9106   -1.1681   -0.7923 C   0  0  0  0  0  0  0  0  0  0  0  0
   -2.5238   -1.9992   -1.1066 H   0  0  0  0  0  0  0  0  0  0  0  0
   -1.0513   -1.1390   -1.4479 H   0  0  0  0  0  0  0  0  0  0  0  0
    1.8498    0.3203    0.0050 Br  0  0  0  0  0 15  0  0  0  0  0  0
   -1.4141    0.2154    0.8195 C   0  0  0  0  0  0  0  0  0  0  0  0
   -0.9812    0.9339    0.0769 H   0  0  0  0  0  0  0  0  0  0  0  0
   -1.1161    0.5785    1.7857 H   0  0  0  0  0  0  0  0  0  0  0  0
   -2.7233    0.6462    0.3126 C   0  0  0  0  0  0  0  0  0  0  0  0
   -3.0489    1.7814    0.2177 H   0  0  0  0  0  0  0  0  0  0  0  0
   -3.6129    0.1842    0.8728 H   0  0  0  0  0  0  0  0  0  0  0  0
   -2.7573   -0.1661   -0.8152 O   0  0  0  0  0  0  0  0  0  0  0  0
  1  8  1  0  0  0  0
  1  3  1  0  0  0  0
  2  1  1  0  0  0  0
  4  1  1  0  0  0  0
  5  4  1  0  0  0  0
  6  4  1  0  0  0  0
  8 10  1  0  0  0  0
  9  8  1  0  0  0  0
 11  8  1  0  0  0  0
 11 13  1  0  0  0  0
 12 11  1  0  0  0  0
 14  4  1  0  0  0  0
 14 11  1  0  0  0  0
M  END
$$$$
Title Card Required
 OpenBabel06272217483D

 14 13  0  0  0  0  0  0  0  0999 V2000
   -1.2631   -1.3217    0.5467 C   0  0  0  0  0  0  0  0  0  0  0  0
   -0.1156   -1.6300    0.1003 H   0  0  0  0  0  0  0  0  0  0  0  0
   -1.6041   -1.8587    1.4130 H   0  0  0  0  0  0  0  0  0  0  0  0
   -1.8933   -1.1747   -0.8027 C   0  0  0  0  0  0  0  0  0  0  0  0
   -2.4835   -1.9998   -1.0476 H   0  0  0  0  0  0  0  0  0  0  0  0
   -1.0196   -1.1917   -1.4422 H   0  0  0  0  0  0  0  0  0  0  0  0
    1.8417    0.3193    0.0044 Br  0  0  0  0  0 15  0  0  0  0  0  0
   -1.4092    0.2213    0.8263 C   0  0  0  0  0  0  0  0  0  0  0  0
   -0.9559    0.8693    0.0932 H   0  0  0  0  0  0  0  0  0  0  0  0
   -1.0502    0.6180    1.8268 H   0  0  0  0  0  0  0  0  0  0  0  0
   -2.7115    0.6691    0.3263 C   0  0  0  0  0  0  0  0  0  0  0  0
   -3.0835    1.7848    0.2003 H   0  0  0  0  0  0  0  0  0  0  0  0
   -3.5871    0.1805    0.8467 H   0  0  0  0  0  0  0  0  0  0  0  0
   -2.7517   -0.1672   -0.8200 O   0  0  0  0  0  0  0  0  0  0  0  0
  1  8  1  0  0  0  0
  1  3  1  0  0  0  0
  2  1  1  0  0  0  0
  4  1  1  0  0  0  0
  5  4  1  0  0  0  0
  6  4  1  0  0  0  0
  8 10  1  0  0  0  0
  9  8  1  0  0  0  0
 11  8  1  0  0  0  0
 11 13  1  0  0  0  0
 12 11  1  0  0  0  0
 14  4  1  0  0  0  0
 14 11  1  0  0  0  0
M  END
$$$$
Title Card Required
 OpenBabel06272217483D

 14 13  0  0  0  0  0  0  0  0999 V2000
   -1.2659   -1.3287    0.5400 C   0  0  0  0  0  0  0  0  0  0  0  0
   -0.0878   -1.5133    0.1244 H   0  0  0  0  0  0  0  0  0  0  0  0
   -1.6051   -1.9466    1.4057 H   0  0  0  0  0  0  0  0  0  0  0  0
   -1.8751   -1.1848   -0.8123 C   0  0  0  0  0  0  0  0  0  0  0  0
   -2.4559   -2.0331   -1.0006 H   0  0  0  0  0  0  0  0  0  0  0  0
   -0.9862   -1.2298   -1.4529 H   0  0  0  0  0  0  0  0  0  0  0  0
    1.8337    0.3183    0.0039 Br  0  0  0  0  0 15  0  0  0  0  0  0
   -1.4015    0.2291    0.8361 C   0  0  0  0  0  0  0  0  0  0  0  0
   -0.8962    0.7986    0.1061 H   0  0  0  0  0  0  0  0  0  0  0  0
   -0.9901    0.6496    1.8555 H   0  0  0  0  0  0  0  0  0  0  0  0
   -2.7049    0.6895    0.3411 C   0  0  0  0  0  0  0  0  0  0  0  0
   -3.0949    1.7614    0.1787 H   0  0  0  0  0  0  0  0  0  0  0  0
   -3.5587    0.1896    0.8319 H   0  0  0  0  0  0  0  0  0  0  0  0
   -2.7484   -0.1647   -0.8271 O   0  0  0  0  0  0  0  0  0  0  0  0
  1  8  1  0  0  0  0
  1  3  1  0  0  0  0
  2  1  1  0  0  0  0
  4  1  1  0  0  0  0
  5  4  1  0  0  0  0
  6  4  1  0  0  0  0
  8 10  1  0  0  0  0
  9  8  1  0  0  0  0
 11 13  1  0  0  0  0
 11  8  1  0  0  0  0
 12 11  1  0  0  0  0
 14  4  1  0  0  0  0
 14 11  1  0  0  0  0
M  END
$$$$
Title Card Required
 OpenBabel06272217483D

 14 13  0  0  0  0  0  0  0  0999 V2000
   -1.2643   -1.3325    0.5337 C   0  0  0  0  0  0  0  0  0  0  0  0
   -0.0960   -1.3981    0.1825 H   0  0  0  0  0  0  0  0  0  0  0  0
   -1.6090   -2.0294    1.3875 H   0  0  0  0  0  0  0  0  0  0  0  0
   -1.8574   -1.1969   -0.8207 C   0  0  0  0  0  0  0  0  0  0  0  0
   -2.4428   -2.0922   -0.9692 H   0  0  0  0  0  0  0  0  0  0  0  0
   -0.9589   -1.2516   -1.4758 H   0  0  0  0  0  0  0  0  0  0  0  0
    1.8261    0.3174    0.0033 Br  0  0  0  0  0 15  0  0  0  0  0  0
   -1.3918    0.2376    0.8495 C   0  0  0  0  0  0  0  0  0  0  0  0
   -0.8081    0.7334    0.1084 H   0  0  0  0  0  0  0  0  0  0  0  0
   -0.9451    0.6667    1.8605 H   0  0  0  0  0  0  0  0  0  0  0  0
   -2.7027    0.7059    0.3550 C   0  0  0  0  0  0  0  0  0  0  0  0
   -3.0853    1.7238    0.1552 H   0  0  0  0  0  0  0  0  0  0  0  0
   -3.5354    0.2071    0.8334 H   0  0  0  0  0  0  0  0  0  0  0  0
   -2.7469   -0.1595   -0.8358 O   0  0  0  0  0  0  0  0  0  0  0  0
  1  8  1  0  0  0  0
  1  3  1  0  0  0  0
  2  1  1  0  0  0  0
  4  1  1  0  0  0  0
  5  4  1  0  0  0  0
  6  4  1  0  0  0  0
  8 10  1  0  0  0  0
  9  8  1  0  0  0  0
 11 13  1  0  0  0  0
 11  8  1  0  0  0  0
 12 11  1  0  0  0  0
 14  4  1  0  0  0  0
 14 11  1  0  0  0  0
M  END
$$$$
Title Card Required
 OpenBabel06272217483D

 14 13  0  0  0  0  0  0  0  0999 V2000
   -1.2593   -1.3335    0.5289 C   0  0  0  0  0  0  0  0  0  0  0  0
   -0.1290   -1.2934    0.2635 H   0  0  0  0  0  0  0  0  0  0  0  0
   -1.6106   -2.0975    1.3524 H   0  0  0  0  0  0  0  0  0  0  0  0
   -1.8412   -1.2106   -0.8283 C   0  0  0  0  0  0  0  0  0  0  0  0
   -2.4355   -2.1584   -0.9500 H   0  0  0  0  0  0  0  0  0  0  0  0
   -0.9423   -1.2599   -1.5050 H   0  0  0  0  0  0  0  0  0  0  0  0
    1.8191    0.3165    0.0028 Br  0  0  0  0  0 15  0  0  0  0  0  0
   -1.3808    0.2463    0.8652 C   0  0  0  0  0  0  0  0  0  0  0  0
   -0.7056    0.6739    0.1050 H   0  0  0  0  0  0  0  0  0  0  0  0
   -0.9157    0.6698    1.8448 H   0  0  0  0  0  0  0  0  0  0  0  0
   -2.7026    0.7177    0.3672 C   0  0  0  0  0  0  0  0  0  0  0  0
   -3.0621    1.6891    0.1297 H   0  0  0  0  0  0  0  0  0  0  0  0
   -3.5221    0.2277    0.8521 H   0  0  0  0  0  0  0  0  0  0  0  0
   -2.7463   -0.1527   -0.8455 O   0  0  0  0  0  0  0  0  0  0  0  0
  1  8  1  0  0  0  0
  1  3  1  0  0  0  0
  2  1  1  0  0  0  0
  4  1  1  0  0  0  0
  5  4  1  0  0  0  0
  6  4  1  0  0  0  0
  8 10  1  0  0  0  0
  9  8  1  0  0  0  0
 11 13  1  0  0  0  0
 11  8  1  0  0  0  0
 12 11  1  0  0  0  0
 14  4  1  0  0  0  0
 14 11  1  0  0  0  0
M  END
$$$$
Title Card Required
 OpenBabel06272217483D

 14 13  0  0  0  0  0  0  0  0999 V2000
   -1.2521   -1.3322    0.5263 C   0  0  0  0  0  0  0  0  0  0  0  0
   -0.1735   -1.2022    0.3596 H   0  0  0  0  0  0  0  0  0  0  0  0
   -1.6077   -2.1486    1.2996 H   0  0  0  0  0  0  0  0  0  0  0  0
   -1.8266   -1.2263   -0.8355 C   0  0  0  0  0  0  0  0  0  0  0  0
   -2.4260   -2.2184   -0.9397 H   0  0  0  0  0  0  0  0  0  0  0  0
   -0.9378   -1.2575   -1.5368 H   0  0  0  0  0  0  0  0  0  0  0  0
    1.8123    0.3157    0.0022 Br  0  0  0  0  0 15  0  0  0  0  0  0
   -1.3681    0.2555    0.8819 C   0  0  0  0  0  0  0  0  0  0  0  0
   -0.6013    0.6156    0.1053 H   0  0  0  0  0  0  0  0  0  0  0  0
   -0.8985    0.6621    1.8160 H   0  0  0  0  0  0  0  0  0  0  0  0
   -2.7030    0.7248    0.3781 C   0  0  0  0  0  0  0  0  0  0  0  0
   -3.0321    1.6712    0.0997 H   0  0  0  0  0  0  0  0  0  0  0  0
   -3.5195    0.2489    0.8874 H   0  0  0  0  0  0  0  0  0  0  0  0
   -2.7460   -0.1448   -0.8559 O   0  0  0  0  0  0  0  0  0  0  0  0
  1  8  1  0  0  0  0
  1  3  1  0  0  0  0
  2  1  1  0  0  0  0
  4  1  1  0  0  0  0
  5  4  1  0  0  0  0
  6  4  1  0  0  0  0
  8 10  1  0  0  0  0
  9  8  1  0  0  0  0
 11  8  1  0  0  0  0
 11 13  1  0  0  0  0
 12 11  1  0  0  0  0
 14  4  1  0  0  0  0
 14 11  1  0  0  0  0
M  END
$$$$
Title Card Required
 OpenBabel06272217483D

 14 13  0  0  0  0  0  0  0  0999 V2000
   -1.2441   -1.3286    0.5261 C   0  0  0  0  0  0  0  0  0  0  0  0
   -0.2127   -1.1266    0.4659 H   0  0  0  0  0  0  0  0  0  0  0  0
   -1.5992   -2.1822    1.2297 H   0  0  0  0  0  0  0  0  0  0  0  0
   -1.8135   -1.2444   -0.8427 C   0  0  0  0  0  0  0  0  0  0  0  0
   -2.4093   -2.2642   -0.9371 H   0  0  0  0  0  0  0  0  0  0  0  0
   -0.9462   -1.2461   -1.5695 H   0  0  0  0  0  0  0  0  0  0  0  0
    1.8054    0.3148    0.0016 Br  0  0  0  0  0 15  0  0  0  0  0  0
   -1.3537    0.2652    0.8985 C   0  0  0  0  0  0  0  0  0  0  0  0
   -0.5050    0.5567    0.1168 H   0  0  0  0  0  0  0  0  0  0  0  0
   -0.8890    0.6475    1.7845 H   0  0  0  0  0  0  0  0  0  0  0  0
   -2.7030    0.7268    0.3878 C   0  0  0  0  0  0  0  0  0  0  0  0
   -2.9982    1.6784    0.0628 H   0  0  0  0  0  0  0  0  0  0  0  0
   -3.5258    0.2718    0.9377 H   0  0  0  0  0  0  0  0  0  0  0  0
   -2.7459   -0.1362   -0.8671 O   0  0  0  0  0  0  0  0  0  0  0  0
  1  8  1  0  0  0  0
  1  3  1  0  0  0  0
  2  1  1  0  0  0  0
  4  1  1  0  0  0  0
  5  4  1  0  0  0  0
  6  4  1  0  0  0  0
  8 10  1  0  0  0  0
  9  8  1  0  0  0  0
 11  8  1  0  0  0  0
 11 13  1  0  0  0  0
 12 11  1  0  0  0  0
 14  4  1  0  0  0  0
 14 11  1  0  0  0  0
M  END
$$$$
Title Card Required
 OpenBabel06272217483D

 14 13  0  0  0  0  0  0  0  0999 V2000
   -1.2367   -1.3227    0.5283 C   0  0  0  0  0  0  0  0  0  0  0  0
   -0.2272   -1.0694    0.5784 H   0  0  0  0  0  0  0  0  0  0  0  0
   -1.5854   -2.1986    1.1463 H   0  0  0  0  0  0  0  0  0  0  0  0
   -1.8018   -1.2650   -0.8500 C   0  0  0  0  0  0  0  0  0  0  0  0
   -2.3829   -2.2901   -0.9419 H   0  0  0  0  0  0  0  0  0  0  0  0
   -0.9679   -1.2266   -1.6022 H   0  0  0  0  0  0  0  0  0  0  0  0
    1.7984    0.3139    0.0009 Br  0  0  0  0  0 15  0  0  0  0  0  0
   -1.3379    0.2750    0.9133 C   0  0  0  0  0  0  0  0  0  0  0  0
   -0.4258    0.4994    0.1446 H   0  0  0  0  0  0  0  0  0  0  0  0
   -0.8803    0.6319    1.7667 H   0  0  0  0  0  0  0  0  0  0  0  0
   -2.7024    0.7238    0.3963 C   0  0  0  0  0  0  0  0  0  0  0  0
   -2.9597    1.7089    0.0200 H   0  0  0  0  0  0  0  0  0  0  0  0
   -3.5368    0.2992    0.9997 H   0  0  0  0  0  0  0  0  0  0  0  0
   -2.7454   -0.1269   -0.8789 O   0  0  0  0  0  0  0  0  0  0  0  0
  1  2  1  0  0  0  0
  1  8  1  0  0  0  0
  1  3  1  0  0  0  0
  4  1  1  0  0  0  0
  5  4  1  0  0  0  0
  6  4  1  0  0  0  0
  8 10  1  0  0  0  0
  9  8  1  0  0  0  0
 11  8  1  0  0  0  0
 11 13  1  0  0  0  0
 12 11  1  0  0  0  0
 14  4  1  0  0  0  0
 14 11  1  0  0  0  0
M  END
$$$$
Title Card Required
 OpenBabel06272217483D

 14 13  0  0  0  0  0  0  0  0999 V2000
   -1.2301   -1.3143    0.5328 C   0  0  0  0  0  0  0  0  0  0  0  0
   -0.2065   -1.0363    0.6928 H   0  0  0  0  0  0  0  0  0  0  0  0
   -1.5695   -2.2017    1.0590 H   0  0  0  0  0  0  0  0  0  0  0  0
   -1.7915   -1.2875   -0.8573 C   0  0  0  0  0  0  0  0  0  0  0  0
   -2.3466   -2.2930   -0.9543 H   0  0  0  0  0  0  0  0  0  0  0  0
   -1.0015   -1.2001   -1.6343 H   0  0  0  0  0  0  0  0  0  0  0  0
    1.7911    0.3129    0.0002 Br  0  0  0  0  0 15  0  0  0  0  0  0
   -1.3215    0.2840    0.9243 C   0  0  0  0  0  0  0  0  0  0  0  0
   -0.3718    0.4499    0.1898 H   0  0  0  0  0  0  0  0  0  0  0  0
   -0.8651    0.6223    1.7821 H   0  0  0  0  0  0  0  0  0  0  0  0
   -2.7012    0.7165    0.4032 C   0  0  0  0  0  0  0  0  0  0  0  0
   -2.9139    1.7486   -0.0219 H   0  0  0  0  0  0  0  0  0  0  0  0
   -3.5457    0.3348    1.0664 H   0  0  0  0  0  0  0  0  0  0  0  0
   -2.7445   -0.1174   -0.8910 O   0  0  0  0  0  0  0  0  0  0  0  0
  1  2  1  0  0  0  0
  1  8  1  0  0  0  0
  1  3  1  0  0  0  0
  4  1  1  0  0  0  0
  5  4  1  0  0  0  0
  6  4  1  0  0  0  0
  8 10  1  0  0  0  0
  9  8  1  0  0  0  0
 11  8  1  0  0  0  0
 11 13  1  0  0  0  0
 12 11  1  0  0  0  0
 14  4  1  0  0  0  0
 14 11  1  0  0  0  0
M  END
$$$$
Title Card Required
 OpenBabel06272217483D

 14 13  0  0  0  0  0  0  0  0999 V2000
   -1.2232   -1.3025    0.5386 C   0  0  0  0  0  0  0  0  0  0  0  0
   -0.1595   -1.0361    0.8027 H   0  0  0  0  0  0  0  0  0  0  0  0
   -1.5584   -2.2018    0.9825 H   0  0  0  0  0  0  0  0  0  0  0  0
   -1.7825   -1.3103   -0.8641 C   0  0  0  0  0  0  0  0  0  0  0  0
   -2.3046   -2.2761   -0.9742 H   0  0  0  0  0  0  0  0  0  0  0  0
   -1.0432   -1.1681   -1.6663 H   0  0  0  0  0  0  0  0  0  0  0  0
    1.7836    0.3120   -0.0005 Br  0  0  0  0  0 15  0  0  0  0  0  0
   -1.3053    0.2916    0.9309 C   0  0  0  0  0  0  0  0  0  0  0  0
   -0.3484    0.4166    0.2494 H   0  0  0  0  0  0  0  0  0  0  0  0
   -0.8432    0.6202    1.8369 H   0  0  0  0  0  0  0  0  0  0  0  0
   -2.6996    0.7063    0.4076 C   0  0  0  0  0  0  0  0  0  0  0  0
   -2.8592    1.7784   -0.0531 H   0  0  0  0  0  0  0  0  0  0  0  0
   -3.5451    0.3809    1.1285 H   0  0  0  0  0  0  0  0  0  0  0  0
   -2.7431   -0.1080   -0.9027 O   0  0  0  0  0  0  0  0  0  0  0  0
  1  2  1  0  0  0  0
  1  8  1  0  0  0  0
  1  3  1  0  0  0  0
  4  1  1  0  0  0  0
  5  4  1  0  0  0  0
  6  4  1  0  0  0  0
  8 10  1  0  0  0  0
  9  8  1  0  0  0  0
 11  8  1  0  0  0  0
 11 13  1  0  0  0  0
 12 11  1  0  0  0  0
 14  4  1  0  0  0  0
 14 11  1  0  0  0  0
M  END
$$$$
Title Card Required
 OpenBabel06272217483D

 14 13  0  0  0  0  0  0  0  0999 V2000
   -1.2135   -1.2861    0.5457 C   0  0  0  0  0  0  0  0  0  0  0  0
   -0.1059   -1.0776    0.8991 H   0  0  0  0  0  0  0  0  0  0  0  0
   -1.5601   -2.2105    0.9305 H   0  0  0  0  0  0  0  0  0  0  0  0
   -1.7739   -1.3312   -0.8704 C   0  0  0  0  0  0  0  0  0  0  0  0
   -2.2664   -2.2535   -1.0021 H   0  0  0  0  0  0  0  0  0  0  0  0
   -1.0885   -1.1316   -1.6997 H   0  0  0  0  0  0  0  0  0  0  0  0
    1.7759    0.3109   -0.0014 Br  0  0  0  0  0 15  0  0  0  0  0  0
   -1.2893    0.2975    0.9345 C   0  0  0  0  0  0  0  0  0  0  0  0
   -0.3557    0.4076    0.3169 H   0  0  0  0  0  0  0  0  0  0  0  0
   -0.8256    0.6191    1.9165 H   0  0  0  0  0  0  0  0  0  0  0  0
   -2.6970    0.6945    0.4089 C   0  0  0  0  0  0  0  0  0  0  0  0
   -2.7963    1.7834   -0.0653 H   0  0  0  0  0  0  0  0  0  0  0  0
   -3.5293    0.4381    1.1773 H   0  0  0  0  0  0  0  0  0  0  0  0
   -2.7409   -0.0989   -0.9134 O   0  0  0  0  0  0  0  0  0  0  0  0
  1  2  1  0  0  0  0
  1  3  1  0  0  0  0
  1  8  1  0  0  0  0
  4  1  1  0  0  0  0
  5  4  1  0  0  0  0
  6  4  1  0  0  0  0
  8 10  1  0  0  0  0
  9  8  1  0  0  0  0
 11  8  1  0  0  0  0
 11 13  1  0  0  0  0
 12 11  1  0  0  0  0
 14  4  1  0  0  0  0
 14 11  1  0  0  0  0
M  END
$$$$
Title Card Required
 OpenBabel06272217483D

 14 13  0  0  0  0  0  0  0  0999 V2000
   -1.1992   -1.2654    0.5543 C   0  0  0  0  0  0  0  0  0  0  0  0
   -0.0656   -1.1637    0.9684 H   0  0  0  0  0  0  0  0  0  0  0  0
   -1.5790   -2.2278    0.9120 H   0  0  0  0  0  0  0  0  0  0  0  0
   -1.7644   -1.3467   -0.8757 C   0  0  0  0  0  0  0  0  0  0  0  0
   -2.2473   -2.2494   -1.0390 H   0  0  0  0  0  0  0  0  0  0  0  0
   -1.1320   -1.0928   -1.7346 H   0  0  0  0  0  0  0  0  0  0  0  0
    1.7679    0.3098   -0.0023 Br  0  0  0  0  0 15  0  0  0  0  0  0
   -1.2742    0.3015    0.9383 C   0  0  0  0  0  0  0  0  0  0  0  0
   -0.3829    0.4312    0.3782 H   0  0  0  0  0  0  0  0  0  0  0  0
   -0.8280    0.6097    1.9941 H   0  0  0  0  0  0  0  0  0  0  0  0
   -2.6927    0.6822    0.4064 C   0  0  0  0  0  0  0  0  0  0  0  0
   -2.7289    1.7555   -0.0529 H   0  0  0  0  0  0  0  0  0  0  0  0
   -3.4959    0.5035    1.2053 H   0  0  0  0  0  0  0  0  0  0  0  0
   -2.7381   -0.0906   -0.9224 O   0  0  0  0  0  0  0  0  0  0  0  0
  1  3  1  0  0  0  0
  1  8  1  0  0  0  0
  1  2  1  0  0  0  0
  4  1  1  0  0  0  0
  5  4  1  0  0  0  0
  6  4  1  0  0  0  0
  8 10  1  0  0  0  0
  9  8  1  0  0  0  0
 11  8  1  0  0  0  0
 11 13  1  0  0  0  0
 12 11  1  0  0  0  0
 14  4  1  0  0  0  0
 14 11  1  0  0  0  0
M  END
$$$$
Title Card Required
 OpenBabel06272217483D

 14 13  0  0  0  0  0  0  0  0999 V2000
   -1.1809   -1.2438    0.5646 C   0  0  0  0  0  0  0  0  0  0  0  0
   -0.0532   -1.2813    0.9963 H   0  0  0  0  0  0  0  0  0  0  0  0
   -1.6115   -2.2354    0.9259 H   0  0  0  0  0  0  0  0  0  0  0  0
   -1.7536   -1.3537   -0.8799 C   0  0  0  0  0  0  0  0  0  0  0  0
   -2.2554   -2.2761   -1.0816 H   0  0  0  0  0  0  0  0  0  0  0  0
   -1.1673   -1.0570   -1.7661 H   0  0  0  0  0  0  0  0  0  0  0  0
    1.7600    0.3087   -0.0032 Br  0  0  0  0  0 15  0  0  0  0  0  0
   -1.2628    0.3026    0.9454 C   0  0  0  0  0  0  0  0  0  0  0  0
   -0.4019    0.4909    0.4112 H   0  0  0  0  0  0  0  0  0  0  0  0
   -0.8594    0.5868    2.0440 H   0  0  0  0  0  0  0  0  0  0  0  0
   -2.6854    0.6706    0.4001 C   0  0  0  0  0  0  0  0  0  0  0  0
   -2.6653    1.7020   -0.0189 H   0  0  0  0  0  0  0  0  0  0  0  0
   -3.4515    0.5669    1.2097 H   0  0  0  0  0  0  0  0  0  0  0  0
   -2.7348   -0.0838   -0.9284 O   0  0  0  0  0  0  0  0  0  0  0  0
  1  3  1  0  0  0  0
  1  8  1  0  0  0  0
  1  2  1  0  0  0  0
  4  1  1  0  0  0  0
  5  4  1  0  0  0  0
  6  4  1  0  0  0  0
  8 10  1  0  0  0  0
  9  8  1  0  0  0  0
 11  8  1  0  0  0  0
 11 13  1  0  0  0  0
 12 11  1  0  0  0  0
 14  4  1  0  0  0  0
 14 11  1  0  0  0  0
M  END
$$$$
Title Card Required
 OpenBabel06272217483D

 14 13  0  0  0  0  0  0  0  0999 V2000
   -1.1609   -1.2255    0.5757 C   0  0  0  0  0  0  0  0  0  0  0  0
   -0.0689   -1.4059    0.9826 H   0  0  0  0  0  0  0  0  0  0  0  0
   -1.6492   -2.2154    0.9617 H   0  0  0  0  0  0  0  0  0  0  0  0
   -1.7432   -1.3535   -0.8833 C   0  0  0  0  0  0  0  0  0  0  0  0
   -2.2773   -2.3129   -1.1210 H   0  0  0  0  0  0  0  0  0  0  0  0
   -1.1910   -1.0297   -1.7883 H   0  0  0  0  0  0  0  0  0  0  0  0
    1.7528    0.3077   -0.0041 Br  0  0  0  0  0 15  0  0  0  0  0  0
   -1.2568    0.3005    0.9562 C   0  0  0  0  0  0  0  0  0  0  0  0
   -0.3957    0.5780    0.4091 H   0  0  0  0  0  0  0  0  0  0  0  0
   -0.9147    0.5531    2.0584 H   0  0  0  0  0  0  0  0  0  0  0  0
   -2.6747    0.6598    0.3909 C   0  0  0  0  0  0  0  0  0  0  0  0
   -2.6120    1.6492    0.0228 H   0  0  0  0  0  0  0  0  0  0  0  0
   -3.4108    0.6175    1.1984 H   0  0  0  0  0  0  0  0  0  0  0  0
   -2.7312   -0.0792   -0.9311 O   0  0  0  0  0  0  0  0  0  0  0  0
  1  8  1  0  0  0  0
  1  3  1  0  0  0  0
  1  2  1  0  0  0  0
  4  1  1  0  0  0  0
  5  4  1  0  0  0  0
  6  4  1  0  0  0  0
  8 10  1  0  0  0  0
  9  8  1  0  0  0  0
 11  8  1  0  0  0  0
 11 13  1  0  0  0  0
 12 11  1  0  0  0  0
 14  4  1  0  0  0  0
 14 11  1  0  0  0  0
M  END
$$$$
Title Card Required
 OpenBabel06272217483D

 14 13  0  0  0  0  0  0  0  0999 V2000
   -1.1407   -1.2113    0.5871 C   0  0  0  0  0  0  0  0  0  0  0  0
   -0.1025   -1.5235    0.9376 H   0  0  0  0  0  0  0  0  0  0  0  0
   -1.6878   -2.1648    1.0093 H   0  0  0  0  0  0  0  0  0  0  0  0
   -1.7343   -1.3489   -0.8866 C   0  0  0  0  0  0  0  0  0  0  0  0
   -2.2973   -2.3369   -1.1505 H   0  0  0  0  0  0  0  0  0  0  0  0
   -1.2037   -1.0120   -1.7998 H   0  0  0  0  0  0  0  0  0  0  0  0
    1.7463    0.3068   -0.0050 Br  0  0  0  0  0 15  0  0  0  0  0  0
   -1.2543    0.2958    0.9685 C   0  0  0  0  0  0  0  0  0  0  0  0
   -0.3788    0.6786    0.3895 H   0  0  0  0  0  0  0  0  0  0  0  0
   -0.9848    0.5134    2.0470 H   0  0  0  0  0  0  0  0  0  0  0  0
   -2.6610    0.6487    0.3803 C   0  0  0  0  0  0  0  0  0  0  0  0
   -2.5673    1.6227    0.0585 H   0  0  0  0  0  0  0  0  0  0  0  0
   -3.3843    0.6520    1.1817 H   0  0  0  0  0  0  0  0  0  0  0  0
   -2.7276   -0.0765   -0.9308 O   0  0  0  0  0  0  0  0  0  0  0  0
  1  2  1  0  0  0  0
  1  8  1  0  0  0  0
  1  3  1  0  0  0  0
  4  1  1  0  0  0  0
  5  4  1  0  0  0  0
  6  4  1  0  0  0  0
  8 10  1  0  0  0  0
  9  8  1  0  0  0  0
 11  8  1  0  0  0  0
 11 13  1  0  0  0  0
 12 11  1  0  0  0  0
 14  4  1  0  0  0  0
 14 11  1  0  0  0  0
M  END
$$$$
Title Card Required
 OpenBabel06272217483D

 14 13  0  0  0  0  0  0  0  0999 V2000
   -1.1214   -1.2010    0.5980 C   0  0  0  0  0  0  0  0  0  0  0  0
   -0.1414   -1.6302    0.8718 H   0  0  0  0  0  0  0  0  0  0  0  0
   -1.7265   -2.0865    1.0634 H   0  0  0  0  0  0  0  0  0  0  0  0
   -1.7271   -1.3416   -0.8899 C   0  0  0  0  0  0  0  0  0  0  0  0
   -2.3078   -2.3388   -1.1680 H   0  0  0  0  0  0  0  0  0  0  0  0
   -1.2055   -1.0033   -1.8020 H   0  0  0  0  0  0  0  0  0  0  0  0
    1.7402    0.3059   -0.0059 Br  0  0  0  0  0 15  0  0  0  0  0  0
   -1.2532    0.2894    0.9800 C   0  0  0  0  0  0  0  0  0  0  0  0
   -0.3710    0.7787    0.3714 H   0  0  0  0  0  0  0  0  0  0  0  0
   -1.0619    0.4724    2.0258 H   0  0  0  0  0  0  0  0  0  0  0  0
   -2.6444    0.6364    0.3686 C   0  0  0  0  0  0  0  0  0  0  0  0
   -2.5276    1.6323    0.0827 H   0  0  0  0  0  0  0  0  0  0  0  0
   -3.3763    0.6705    1.1649 H   0  0  0  0  0  0  0  0  0  0  0  0
   -2.7237   -0.0755   -0.9280 O   0  0  0  0  0  0  0  0  0  0  0  0
  1  2  1  0  0  0  0
  1  8  1  0  0  0  0
  1  3  1  0  0  0  0
  4  1  1  0  0  0  0
  5  4  1  0  0  0  0
  6  4  1  0  0  0  0
  8 10  1  0  0  0  0
  9  8  1  0  0  0  0
 11  8  1  0  0  0  0
 11 13  1  0  0  0  0
 12 11  1  0  0  0  0
 14  4  1  0  0  0  0
 14 11  1  0  0  0  0
M  END
$$$$
Title Card Required
 OpenBabel06272217483D

 14 13  0  0  0  0  0  0  0  0999 V2000
   -1.1038   -1.1939    0.6077 C   0  0  0  0  0  0  0  0  0  0  0  0
   -0.1748   -1.7259    0.7939 H   0  0  0  0  0  0  0  0  0  0  0  0
   -1.7653   -1.9859    1.1208 H   0  0  0  0  0  0  0  0  0  0  0  0
   -1.7220   -1.3321   -0.8929 C   0  0  0  0  0  0  0  0  0  0  0  0
   -2.3069   -2.3175   -1.1732 H   0  0  0  0  0  0  0  0  0  0  0  0
   -1.1960   -1.0023   -1.7969 H   0  0  0  0  0  0  0  0  0  0  0  0
    1.7345    0.3051   -0.0068 Br  0  0  0  0  0 15  0  0  0  0  0  0
   -1.2522    0.2820    0.9886 C   0  0  0  0  0  0  0  0  0  0  0  0
   -0.3820    0.8673    0.3669 H   0  0  0  0  0  0  0  0  0  0  0  0
   -1.1401    0.4349    2.0137 H   0  0  0  0  0  0  0  0  0  0  0  0
   -2.6255    0.6234    0.3563 C   0  0  0  0  0  0  0  0  0  0  0  0
   -2.4920    1.6687    0.0973 H   0  0  0  0  0  0  0  0  0  0  0  0
   -3.3854    0.6740    1.1473 H   0  0  0  0  0  0  0  0  0  0  0  0
   -2.7196   -0.0760   -0.9232 O   0  0  0  0  0  0  0  0  0  0  0  0
  1  2  1  0  0  0  0
  1  8  1  0  0  0  0
  1  3  1  0  0  0  0
  4  1  1  0  0  0  0
  5  4  1  0  0  0  0
  6  4  1  0  0  0  0
  8 10  1  0  0  0  0
  9  8  1  0  0  0  0
 11  8  1  0  0  0  0
 11 13  1  0  0  0  0
 12 11  1  0  0  0  0
 14  4  1  0  0  0  0
 14 11  1  0  0  0  0
M  END
$$$$
Title Card Required
 OpenBabel06272217483D

 14 13  0  0  0  0  0  0  0  0999 V2000
   -1.0886   -1.1894    0.6158 C   0  0  0  0  0  0  0  0  0  0  0  0
   -0.1966   -1.8103    0.7107 H   0  0  0  0  0  0  0  0  0  0  0  0
   -1.8037   -1.8700    1.1788 H   0  0  0  0  0  0  0  0  0  0  0  0
   -1.7189   -1.3207   -0.8953 C   0  0  0  0  0  0  0  0  0  0  0  0
   -2.2960   -2.2769   -1.1673 H   0  0  0  0  0  0  0  0  0  0  0  0
   -1.1745   -1.0072   -1.7868 H   0  0  0  0  0  0  0  0  0  0  0  0
    1.7291    0.3043   -0.0078 Br  0  0  0  0  0 15  0  0  0  0  0  0
   -1.2507    0.2744    0.9929 C   0  0  0  0  0  0  0  0  0  0  0  0
   -0.4137    0.9369    0.3818 H   0  0  0  0  0  0  0  0  0  0  0  0
   -1.2157    0.4037    2.0249 H   0  0  0  0  0  0  0  0  0  0  0  0
   -2.6050    0.6115    0.3434 C   0  0  0  0  0  0  0  0  0  0  0  0
   -2.4617    1.7123    0.1068 H   0  0  0  0  0  0  0  0  0  0  0  0
   -3.4064    0.6635    1.1253 H   0  0  0  0  0  0  0  0  0  0  0  0
   -2.7151   -0.0779   -0.9166 O   0  0  0  0  0  0  0  0  0  0  0  0
  1  2  1  0  0  0  0
  1  8  1  0  0  0  0
  1  3  1  0  0  0  0
  4  1  1  0  0  0  0
  5  4  1  0  0  0  0
  6  4  1  0  0  0  0
  8 10  1  0  0  0  0
  9  8  1  0  0  0  0
 11  8  1  0  0  0  0
 11 13  1  0  0  0  0
 12 11  1  0  0  0  0
 14  4  1  0  0  0  0
 14 11  1  0  0  0  0
M  END
$$$$
Title Card Required
 OpenBabel06272217483D

 14 13  0  0  0  0  0  0  0  0999 V2000
   -1.0759   -1.1873    0.6218 C   0  0  0  0  0  0  0  0  0  0  0  0
   -0.2082   -1.8818    0.6277 H   0  0  0  0  0  0  0  0  0  0  0  0
   -1.8405   -1.7471    1.2350 H   0  0  0  0  0  0  0  0  0  0  0  0
   -1.7177   -1.3072   -0.8965 C   0  0  0  0  0  0  0  0  0  0  0  0
   -2.2793   -2.2252   -1.1528 H   0  0  0  0  0  0  0  0  0  0  0  0
   -1.1414   -1.0163   -1.7734 H   0  0  0  0  0  0  0  0  0  0  0  0
    1.7239    0.3035   -0.0087 Br  0  0  0  0  0 15  0  0  0  0  0  0
   -1.2480    0.2672    0.9930 C   0  0  0  0  0  0  0  0  0  0  0  0
   -0.4631    0.9840    0.4173 H   0  0  0  0  0  0  0  0  0  0  0  0
   -1.2878    0.3793    2.0586 H   0  0  0  0  0  0  0  0  0  0  0  0
   -2.5839    0.6018    0.3303 C   0  0  0  0  0  0  0  0  0  0  0  0
   -2.4386    1.7468    0.1144 H   0  0  0  0  0  0  0  0  0  0  0  0
   -3.4321    0.6407    1.0949 H   0  0  0  0  0  0  0  0  0  0  0  0
   -2.7102   -0.0812   -0.9087 O   0  0  0  0  0  0  0  0  0  0  0  0
  1  2  1  0  0  0  0
  1  8  1  0  0  0  0
  1  3  1  0  0  0  0
  4  1  1  0  0  0  0
  5  4  1  0  0  0  0
  6  4  1  0  0  0  0
  8 10  1  0  0  0  0
  9  8  1  0  0  0  0
 11  8  1  0  0  0  0
 11 13  1  0  0  0  0
 12 11  1  0  0  0  0
 14  4  1  0  0  0  0
 14 11  1  0  0  0  0
M  END
$$$$
Title Card Required
 OpenBabel06272217483D

 14 13  0  0  0  0  0  0  0  0999 V2000
   -1.0652   -1.1874    0.6256 C   0  0  0  0  0  0  0  0  0  0  0  0
   -0.2154   -1.9377    0.5488 H   0  0  0  0  0  0  0  0  0  0  0  0
   -1.8742   -1.6227    1.2878 H   0  0  0  0  0  0  0  0  0  0  0  0
   -1.7178   -1.2910   -0.8963 C   0  0  0  0  0  0  0  0  0  0  0  0
   -2.2631   -2.1726   -1.1331 H   0  0  0  0  0  0  0  0  0  0  0  0
   -1.0973   -1.0283   -1.7570 H   0  0  0  0  0  0  0  0  0  0  0  0
    1.7189    0.3027   -0.0097 Br  0  0  0  0  0 15  0  0  0  0  0  0
   -1.2442    0.2608    0.9906 C   0  0  0  0  0  0  0  0  0  0  0  0
   -0.5252    1.0094    0.4723 H   0  0  0  0  0  0  0  0  0  0  0  0
   -1.3567    0.3598    2.1014 H   0  0  0  0  0  0  0  0  0  0  0  0
   -2.5628    0.5949    0.3173 C   0  0  0  0  0  0  0  0  0  0  0  0
   -2.4233    1.7638    0.1215 H   0  0  0  0  0  0  0  0  0  0  0  0
   -3.4565    0.6072    1.0534 H   0  0  0  0  0  0  0  0  0  0  0  0
   -2.7047   -0.0857   -0.8998 O   0  0  0  0  0  0  0  0  0  0  0  0
  1  8  1  0  0  0  0
  1  3  1  0  0  0  0
  2  1  1  0  0  0  0
  4  1  1  0  0  0  0
  5  4  1  0  0  0  0
  6  4  1  0  0  0  0
  8 10  1  0  0  0  0
  9  8  1  0  0  0  0
 11  8  1  0  0  0  0
 11 13  1  0  0  0  0
 12 11  1  0  0  0  0
 14  4  1  0  0  0  0
 14 11  1  0  0  0  0
M  END
$$$$
Title Card Required
 OpenBabel06272217483D

 14 13  0  0  0  0  0  0  0  0999 V2000
   -1.0562   -1.1899    0.6271 C   0  0  0  0  0  0  0  0  0  0  0  0
   -0.2238   -1.9750    0.4770 H   0  0  0  0  0  0  0  0  0  0  0  0
   -1.9021   -1.5012    1.3351 H   0  0  0  0  0  0  0  0  0  0  0  0
   -1.7185   -1.2705   -0.8942 C   0  0  0  0  0  0  0  0  0  0  0  0
   -2.2551   -2.1313   -1.1117 H   0  0  0  0  0  0  0  0  0  0  0  0
   -1.0430   -1.0427   -1.7361 H   0  0  0  0  0  0  0  0  0  0  0  0
    1.7140    0.3019   -0.0108 Br  0  0  0  0  0 15  0  0  0  0  0  0
   -1.2392    0.2555    0.9875 C   0  0  0  0  0  0  0  0  0  0  0  0
   -0.5928    1.0173    0.5447 H   0  0  0  0  0  0  0  0  0  0  0  0
   -1.4219    0.3433    2.1379 H   0  0  0  0  0  0  0  0  0  0  0  0
   -2.5419    0.5909    0.3042 C   0  0  0  0  0  0  0  0  0  0  0  0
   -2.4157    1.7596    0.1283 H   0  0  0  0  0  0  0  0  0  0  0  0
   -3.4749    0.5638    0.9987 H   0  0  0  0  0  0  0  0  0  0  0  0
   -2.6984   -0.0916   -0.8901 O   0  0  0  0  0  0  0  0  0  0  0  0
  1  8  1  0  0  0  0
  1  3  1  0  0  0  0
  2  1  1  0  0  0  0
  4 14  1  0  0  0  0
  4  1  1  0  0  0  0
  5  4  1  0  0  0  0
  6  4  1  0  0  0  0
  8 10  1  0  0  0  0
  9  8  1  0  0  0  0
 11  8  1  0  0  0  0
 11 13  1  0  0  0  0
 12 11  1  0  0  0  0
 14 11  1  0  0  0  0
M  END
$$$$
Title Card Required
 OpenBabel06272217483D

 14 13  0  0  0  0  0  0  0  0999 V2000
   -1.0491   -1.1949    0.6261 C   0  0  0  0  0  0  0  0  0  0  0  0
   -0.2373   -1.9899    0.4171 H   0  0  0  0  0  0  0  0  0  0  0  0
   -1.9201   -1.3887    1.3733 H   0  0  0  0  0  0  0  0  0  0  0  0
   -1.7189   -1.2442   -0.8898 C   0  0  0  0  0  0  0  0  0  0  0  0
   -2.2623   -2.1120   -1.0912 H   0  0  0  0  0  0  0  0  0  0  0  0
   -0.9803   -1.0593   -1.7072 H   0  0  0  0  0  0  0  0  0  0  0  0
    1.7088    0.3010   -0.0120 Br  0  0  0  0  0 15  0  0  0  0  0  0
   -1.2339    0.2506    0.9858 C   0  0  0  0  0  0  0  0  0  0  0  0
   -0.6520    1.0192    0.6292 H   0  0  0  0  0  0  0  0  0  0  0  0
   -1.4810    0.3292    2.1550 H   0  0  0  0  0  0  0  0  0  0  0  0
   -2.5215    0.5900    0.2910 C   0  0  0  0  0  0  0  0  0  0  0  0
   -2.4160    1.7325    0.1338 H   0  0  0  0  0  0  0  0  0  0  0  0
   -3.4833    0.5109    0.9302 H   0  0  0  0  0  0  0  0  0  0  0  0
   -2.6907   -0.0995   -0.8797 O   0  0  0  0  0  0  0  0  0  0  0  0
  1  8  1  0  0  0  0
  1  3  1  0  0  0  0
  2  1  1  0  0  0  0
  4 14  1  0  0  0  0
  4  1  1  0  0  0  0
  5  4  1  0  0  0  0
  6  4  1  0  0  0  0
  8 10  1  0  0  0  0
  9  8  1  0  0  0  0
 11 13  1  0  0  0  0
 11  8  1  0  0  0  0
 12 11  1  0  0  0  0
 14 11  1  0  0  0  0
M  END
$$$$
Title Card Required
 OpenBabel06272217483D

 14 13  0  0  0  0  0  0  0  0999 V2000
   -1.0449   -1.2025    0.6222 C   0  0  0  0  0  0  0  0  0  0  0  0
   -0.2566   -1.9792    0.3762 H   0  0  0  0  0  0  0  0  0  0  0  0
   -1.9226   -1.2979    1.3963 H   0  0  0  0  0  0  0  0  0  0  0  0
   -1.7189   -1.2117   -0.8828 C   0  0  0  0  0  0  0  0  0  0  0  0
   -2.2848   -2.1164   -1.0728 H   0  0  0  0  0  0  0  0  0  0  0  0
   -0.9143   -1.0773   -1.6664 H   0  0  0  0  0  0  0  0  0  0  0  0
    1.7034    0.3001   -0.0134 Br  0  0  0  0  0 15  0  0  0  0  0  0
   -1.2298    0.2447    0.9875 C   0  0  0  0  0  0  0  0  0  0  0  0
   -0.6782    1.0375    0.7156 H   0  0  0  0  0  0  0  0  0  0  0  0
   -1.5297    0.3176    2.1426 H   0  0  0  0  0  0  0  0  0  0  0  0
   -2.5025    0.5922    0.2780 C   0  0  0  0  0  0  0  0  0  0  0  0
   -2.4240    1.6866    0.1357 H   0  0  0  0  0  0  0  0  0  0  0  0
   -3.4783    0.4506    0.8507 H   0  0  0  0  0  0  0  0  0  0  0  0
   -2.6811   -0.1096   -0.8693 O   0  0  0  0  0  0  0  0  0  0  0  0
  1  8  1  0  0  0  0
  1  3  1  0  0  0  0
  2  1  1  0  0  0  0
  4 14  1  0  0  0  0
  4  1  1  0  0  0  0
  5  4  1  0  0  0  0
  6  4  1  0  0  0  0
  8 10  1  0  0  0  0
  9  8  1  0  0  0  0
 11 13  1  0  0  0  0
 11  8  1  0  0  0  0
 12 11  1  0  0  0  0
 14 11  1  0  0  0  0
M  END
$$$$
Title Card Required
 OpenBabel06272217483D

 14 13  0  0  0  0  0  0  0  0999 V2000
   -1.0450   -1.2112    0.6152 C   0  0  0  0  0  0  0  0  0  0  0  0
   -0.2756   -1.9460    0.3616 H   0  0  0  0  0  0  0  0  0  0  0  0
   -1.9062   -1.2479    1.3984 H   0  0  0  0  0  0  0  0  0  0  0  0
   -1.7186   -1.1760   -0.8737 C   0  0  0  0  0  0  0  0  0  0  0  0
   -2.3113   -2.1300   -1.0556 H   0  0  0  0  0  0  0  0  0  0  0  0
   -0.8548   -1.0938   -1.6125 H   0  0  0  0  0  0  0  0  0  0  0  0
    1.6980    0.2991   -0.0148 Br  0  0  0  0  0 15  0  0  0  0  0  0
   -1.2280    0.2374    0.9938 C   0  0  0  0  0  0  0  0  0  0  0  0
   -0.6534    1.0871    0.7952 H   0  0  0  0  0  0  0  0  0  0  0  0
   -1.5626    0.3094    2.0994 H   0  0  0  0  0  0  0  0  0  0  0  0
   -2.4862    0.5962    0.2662 C   0  0  0  0  0  0  0  0  0  0  0  0
   -2.4380    1.6400    0.1301 H   0  0  0  0  0  0  0  0  0  0  0  0
   -3.4608    0.3891    0.7718 H   0  0  0  0  0  0  0  0  0  0  0  0
   -2.6696   -0.1219   -0.8602 O   0  0  0  0  0  0  0  0  0  0  0  0
  1  8  1  0  0  0  0
  1  3  1  0  0  0  0
  2  1  1  0  0  0  0
  4 14  1  0  0  0  0
  4  1  1  0  0  0  0
  5  4  1  0  0  0  0
  6  4  1  0  0  0  0
  8 10  1  0  0  0  0
  9  8  1  0  0  0  0
 11 13  1  0  0  0  0
 11  8  1  0  0  0  0
 12 11  1  0  0  0  0
 14 11  1  0  0  0  0
M  END
$$$$
Title Card Required
 OpenBabel06272217483D

 14 13  0  0  0  0  0  0  0  0999 V2000
   -1.0505   -1.2193    0.6054 C   0  0  0  0  0  0  0  0  0  0  0  0
   -0.2806   -1.9025    0.3743 H   0  0  0  0  0  0  0  0  0  0  0  0
   -1.8731   -1.2522    1.3799 H   0  0  0  0  0  0  0  0  0  0  0  0
   -1.7182   -1.1408   -0.8627 C   0  0  0  0  0  0  0  0  0  0  0  0
   -2.3269   -2.1332   -1.0386 H   0  0  0  0  0  0  0  0  0  0  0  0
   -0.8096   -1.1052   -1.5478 H   0  0  0  0  0  0  0  0  0  0  0  0
    1.6925    0.2982   -0.0164 Br  0  0  0  0  0 15  0  0  0  0  0  0
   -1.2272    0.2311    1.0037 C   0  0  0  0  0  0  0  0  0  0  0  0
   -0.5895    1.1477    0.8708 H   0  0  0  0  0  0  0  0  0  0  0  0
   -1.5802    0.3037    2.0376 H   0  0  0  0  0  0  0  0  0  0  0  0
   -2.4730    0.6003    0.2564 C   0  0  0  0  0  0  0  0  0  0  0  0
   -2.4559    1.6214    0.1123 H   0  0  0  0  0  0  0  0  0  0  0  0
   -3.4370    0.3318    0.7074 H   0  0  0  0  0  0  0  0  0  0  0  0
   -2.6561   -0.1359   -0.8537 O   0  0  0  0  0  0  0  0  0  0  0  0
  1  8  1  0  0  0  0
  1  3  1  0  0  0  0
  2  1  1  0  0  0  0
  4 14  1  0  0  0  0
  4  1  1  0  0  0  0
  5  4  1  0  0  0  0
  6  4  1  0  0  0  0
  8 10  1  0  0  0  0
  9  8  1  0  0  0  0
 11 13  1  0  0  0  0
 11  8  1  0  0  0  0
 12 11  1  0  0  0  0
 14 11  1  0  0  0  0
M  END
$$$$
Title Card Required
 OpenBabel06272217483D

 14 13  0  0  0  0  0  0  0  0999 V2000
   -1.0624   -1.2245    0.5931 C   0  0  0  0  0  0  0  0  0  0  0  0
   -0.2551   -1.8638    0.4111 H   0  0  0  0  0  0  0  0  0  0  0  0
   -1.8326   -1.3184    1.3480 H   0  0  0  0  0  0  0  0  0  0  0  0
   -1.7171   -1.1098   -0.8499 C   0  0  0  0  0  0  0  0  0  0  0  0
   -2.3216   -2.1138   -1.0224 H   0  0  0  0  0  0  0  0  0  0  0  0
   -0.7828   -1.1071   -1.4784 H   0  0  0  0  0  0  0  0  0  0  0  0
    1.6870    0.2971   -0.0182 Br  0  0  0  0  0 15  0  0  0  0  0  0
   -1.2249    0.2291    1.0147 C   0  0  0  0  0  0  0  0  0  0  0  0
   -0.5128    1.1832    0.9454 H   0  0  0  0  0  0  0  0  0  0  0  0
   -1.5896    0.2993    1.9853 H   0  0  0  0  0  0  0  0  0  0  0  0
   -2.4627    0.6034    0.2490 C   0  0  0  0  0  0  0  0  0  0  0  0
   -2.4771    1.6481    0.0802 H   0  0  0  0  0  0  0  0  0  0  0  0
   -3.4151    0.2842    0.6714 H   0  0  0  0  0  0  0  0  0  0  0  0
   -2.6408   -0.1511   -0.8510 O   0  0  0  0  0  0  0  0  0  0  0  0
  1  8  1  0  0  0  0
  1  3  1  0  0  0  0
  2  1  1  0  0  0  0
  4  1  1  0  0  0  0
  5  4  1  0  0  0  0
  6  4  1  0  0  0  0
  8 10  1  0  0  0  0
  9  8  1  0  0  0  0
 11 13  1  0  0  0  0
 11  8  1  0  0  0  0
 12 11  1  0  0  0  0
 14  4  1  0  0  0  0
 14 11  1  0  0  0  0
M  END
$$$$
Title Card Required
 OpenBabel06272217483D

 14 13  0  0  0  0  0  0  0  0999 V2000
   -1.0786   -1.2259    0.5789 C   0  0  0  0  0  0  0  0  0  0  0  0
   -0.1986   -1.8353    0.4649 H   0  0  0  0  0  0  0  0  0  0  0  0
   -1.8020   -1.4378    1.3187 H   0  0  0  0  0  0  0  0  0  0  0  0
   -1.7143   -1.0877   -0.8363 C   0  0  0  0  0  0  0  0  0  0  0  0
   -2.2939   -2.0737   -1.0099 H   0  0  0  0  0  0  0  0  0  0  0  0
   -0.7726   -1.0957   -1.4177 H   0  0  0  0  0  0  0  0  0  0  0  0
    1.6819    0.2962   -0.0200 Br  0  0  0  0  0 15  0  0  0  0  0  0
   -1.2195    0.2328    1.0238 C   0  0  0  0  0  0  0  0  0  0  0  0
   -0.4485    1.1711    1.0120 H   0  0  0  0  0  0  0  0  0  0  0  0
   -1.6015    0.2944    1.9773 H   0  0  0  0  0  0  0  0  0  0  0  0
   -2.4555    0.6068    0.2443 C   0  0  0  0  0  0  0  0  0  0  0  0
   -2.5002    1.7007    0.0398 H   0  0  0  0  0  0  0  0  0  0  0  0
   -3.4011    0.2532    0.6722 H   0  0  0  0  0  0  0  0  0  0  0  0
   -2.6256   -0.1649   -0.8524 O   0  0  0  0  0  0  0  0  0  0  0  0
  1  8  1  0  0  0  0
  1  3  1  0  0  0  0
  2  1  1  0  0  0  0
  4  1  1  0  0  0  0
  5  4  1  0  0  0  0
  6  4  1  0  0  0  0
  8 10  1  0  0  0  0
  9  8  1  0  0  0  0
 11 13  1  0  0  0  0
 11  8  1  0  0  0  0
 12 11  1  0  0  0  0
 14  4  1  0  0  0  0
 14 11  1  0  0  0  0
M  END
$$$$
Title Card Required
 OpenBabel06272217483D

 14 13  0  0  0  0  0  0  0  0999 V2000
   -1.0947   -1.2246    0.5647 C   0  0  0  0  0  0  0  0  0  0  0  0
   -0.1350   -1.8065    0.5259 H   0  0  0  0  0  0  0  0  0  0  0  0
   -1.7894   -1.5854    1.3008 H   0  0  0  0  0  0  0  0  0  0  0  0
   -1.7088   -1.0760   -0.8230 C   0  0  0  0  0  0  0  0  0  0  0  0
   -2.2524   -2.0275   -1.0037 H   0  0  0  0  0  0  0  0  0  0  0  0
   -0.7707   -1.0722   -1.3764 H   0  0  0  0  0  0  0  0  0  0  0  0
    1.6774    0.2953   -0.0217 Br  0  0  0  0  0 15  0  0  0  0  0  0
   -1.2120    0.2408    1.0304 C   0  0  0  0  0  0  0  0  0  0  0  0
   -0.4064    1.1168    1.0639 H   0  0  0  0  0  0  0  0  0  0  0  0
   -1.6187    0.2874    2.0134 H   0  0  0  0  0  0  0  0  0  0  0  0
   -2.4514    0.6124    0.2417 C   0  0  0  0  0  0  0  0  0  0  0  0
   -2.5228    1.7450    0.0013 H   0  0  0  0  0  0  0  0  0  0  0  0
   -3.3928    0.2415    0.7022 H   0  0  0  0  0  0  0  0  0  0  0  0
   -2.6124   -0.1755   -0.8571 O   0  0  0  0  0  0  0  0  0  0  0  0
  1  8  1  0  0  0  0
  1  3  1  0  0  0  0
  2  1  1  0  0  0  0
  4  1  1  0  0  0  0
  5  4  1  0  0  0  0
  6  4  1  0  0  0  0
  8  9  1  0  0  0  0
  8 10  1  0  0  0  0
 11 13  1  0  0  0  0
 11  8  1  0  0  0  0
 12 11  1  0  0  0  0
 14  4  1  0  0  0  0
 14 11  1  0  0  0  0
M  END
$$$$
Title Card Required
 OpenBabel06272217483D

 14 13  0  0  0  0  0  0  0  0999 V2000
   -1.1093   -1.2224    0.5520 C   0  0  0  0  0  0  0  0  0  0  0  0
   -0.0827   -1.7675    0.5877 H   0  0  0  0  0  0  0  0  0  0  0  0
   -1.7859   -1.7428    1.2870 H   0  0  0  0  0  0  0  0  0  0  0  0
   -1.7000   -1.0728   -0.8100 C   0  0  0  0  0  0  0  0  0  0  0  0
   -2.2066   -1.9899   -1.0055 H   0  0  0  0  0  0  0  0  0  0  0  0
   -0.7690   -1.0385   -1.3558 H   0  0  0  0  0  0  0  0  0  0  0  0
    1.6733    0.2944   -0.0234 Br  0  0  0  0  0 15  0  0  0  0  0  0
   -1.2039    0.2509    1.0367 C   0  0  0  0  0  0  0  0  0  0  0  0
   -0.3817    1.0346    1.1013 H   0  0  0  0  0  0  0  0  0  0  0  0
   -1.6356    0.2775    2.0680 H   0  0  0  0  0  0  0  0  0  0  0  0
   -2.4498    0.6206    0.2405 C   0  0  0  0  0  0  0  0  0  0  0  0
   -2.5438    1.7674   -0.0313 H   0  0  0  0  0  0  0  0  0  0  0  0
   -3.3842    0.2471    0.7497 H   0  0  0  0  0  0  0  0  0  0  0  0
   -2.6015   -0.1822   -0.8637 O   0  0  0  0  0  0  0  0  0  0  0  0
  1  2  1  0  0  0  0
  1  8  1  0  0  0  0
  1  3  1  0  0  0  0
  4  1  1  0  0  0  0
  5  4  1  0  0  0  0
  6  4  1  0  0  0  0
  8  9  1  0  0  0  0
  8 10  1  0  0  0  0
 11 13  1  0  0  0  0
 11  8  1  0  0  0  0
 12 11  1  0  0  0  0
 14  4  1  0  0  0  0
 14 11  1  0  0  0  0
M  END
$$$$
Title Card Required
 OpenBabel06272217483D

 14 13  0  0  0  0  0  0  0  0999 V2000
   -1.1223   -1.2206    0.5424 C   0  0  0  0  0  0  0  0  0  0  0  0
   -0.0497   -1.7135    0.6464 H   0  0  0  0  0  0  0  0  0  0  0  0
   -1.7805   -1.8985    1.2659 H   0  0  0  0  0  0  0  0  0  0  0  0
   -1.6872   -1.0761   -0.7972 C   0  0  0  0  0  0  0  0  0  0  0  0
   -2.1626   -1.9735   -1.0177 H   0  0  0  0  0  0  0  0  0  0  0  0
   -0.7632   -0.9949   -1.3545 H   0  0  0  0  0  0  0  0  0  0  0  0
    1.6695    0.2936   -0.0251 Br  0  0  0  0  0 15  0  0  0  0  0  0
   -1.1969    0.2617    1.0444 C   0  0  0  0  0  0  0  0  0  0  0  0
   -0.3643    0.9364    1.1264 H   0  0  0  0  0  0  0  0  0  0  0  0
   -1.6461    0.2646    2.1212 H   0  0  0  0  0  0  0  0  0  0  0  0
   -2.4506    0.6318    0.2403 C   0  0  0  0  0  0  0  0  0  0  0  0
   -2.5629    1.7663   -0.0576 H   0  0  0  0  0  0  0  0  0  0  0  0
   -3.3704    0.2690    0.8072 H   0  0  0  0  0  0  0  0  0  0  0  0
   -2.5928   -0.1853   -0.8719 O   0  0  0  0  0  0  0  0  0  0  0  0
  1  2  1  0  0  0  0
  1  8  1  0  0  0  0
  1  3  1  0  0  0  0
  4  1  1  0  0  0  0
  5  4  1  0  0  0  0
  6  4  1  0  0  0  0
  8  9  1  0  0  0  0
  8 10  1  0  0  0  0
 11 13  1  0  0  0  0
 11  8  1  0  0  0  0
 12 11  1  0  0  0  0
 14  4  1  0  0  0  0
 14 11  1  0  0  0  0
M  END
$$$$
Title Card Required
 OpenBabel06272217483D

 14 13  0  0  0  0  0  0  0  0999 V2000
   -1.1338   -1.2202    0.5375 C   0  0  0  0  0  0  0  0  0  0  0  0
   -0.0405   -1.6433    0.6980 H   0  0  0  0  0  0  0  0  0  0  0  0
   -1.7661   -2.0400    1.2298 H   0  0  0  0  0  0  0  0  0  0  0  0
   -1.6697   -1.0846   -0.7852 C   0  0  0  0  0  0  0  0  0  0  0  0
   -2.1248   -1.9873   -1.0432 H   0  0  0  0  0  0  0  0  0  0  0  0
   -0.7532   -0.9423   -1.3702 H   0  0  0  0  0  0  0  0  0  0  0  0
    1.6658    0.2928   -0.0268 Br  0  0  0  0  0 15  0  0  0  0  0  0
   -1.1932    0.2715    1.0547 C   0  0  0  0  0  0  0  0  0  0  0  0
   -0.3385    0.8372    1.1403 H   0  0  0  0  0  0  0  0  0  0  0  0
   -1.6458    0.2496    2.1603 H   0  0  0  0  0  0  0  0  0  0  0  0
   -2.4536    0.6457    0.2411 C   0  0  0  0  0  0  0  0  0  0  0  0
   -2.5799    1.7431   -0.0774 H   0  0  0  0  0  0  0  0  0  0  0  0
   -3.3482    0.3064    0.8688 H   0  0  0  0  0  0  0  0  0  0  0  0
   -2.5863   -0.1847   -0.8811 O   0  0  0  0  0  0  0  0  0  0  0  0
  1  2  1  0  0  0  0
  1  8  1  0  0  0  0
  1  3  1  0  0  0  0
  4  1  1  0  0  0  0
  5  4  1  0  0  0  0
  6  4  1  0  0  0  0
  8  9  1  0  0  0  0
  8 10  1  0  0  0  0
 11 13  1  0  0  0  0
 11  8  1  0  0  0  0
 12 11  1  0  0  0  0
 14  4  1  0  0  0  0
 14 11  1  0  0  0  0
M  END
$$$$
Title Card Required
 OpenBabel06272217483D

 14 13  0  0  0  0  0  0  0  0999 V2000
   -1.1431   -1.2219    0.5386 C   0  0  0  0  0  0  0  0  0  0  0  0
   -0.0547   -1.5613    0.7373 H   0  0  0  0  0  0  0  0  0  0  0  0
   -1.7408   -2.1530    1.1781 H   0  0  0  0  0  0  0  0  0  0  0  0
   -1.6481   -1.0971   -0.7755 C   0  0  0  0  0  0  0  0  0  0  0  0
   -2.0930   -2.0283   -1.0809 H   0  0  0  0  0  0  0  0  0  0  0  0
   -0.7424   -0.8848   -1.3968 H   0  0  0  0  0  0  0  0  0  0  0  0
    1.6623    0.2921   -0.0287 Br  0  0  0  0  0 15  0  0  0  0  0  0
   -1.1948    0.2783    1.0677 C   0  0  0  0  0  0  0  0  0  0  0  0
   -0.2886    0.7530    1.1442 H   0  0  0  0  0  0  0  0  0  0  0  0
   -1.6329    0.2345    2.1782 H   0  0  0  0  0  0  0  0  0  0  0  0
   -2.4583    0.6614    0.2427 C   0  0  0  0  0  0  0  0  0  0  0  0
   -2.5942    1.7057   -0.0911 H   0  0  0  0  0  0  0  0  0  0  0  0
   -3.3177    0.3565    0.9271 H   0  0  0  0  0  0  0  0  0  0  0  0
   -2.5818   -0.1807   -0.8905 O   0  0  0  0  0  0  0  0  0  0  0  0
  1  2  1  0  0  0  0
  1  8  1  0  0  0  0
  1  3  1  0  0  0  0
  4  1  1  0  0  0  0
  5  4  1  0  0  0  0
  6  4  1  0  0  0  0
  8  9  1  0  0  0  0
  8 10  1  0  0  0  0
 11 13  1  0  0  0  0
 11  8  1  0  0  0  0
 12 11  1  0  0  0  0
 14  4  1  0  0  0  0
 14 11  1  0  0  0  0
M  END
$$$$
Title Card Required
 OpenBabel06272217483D

 14 13  0  0  0  0  0  0  0  0999 V2000
   -1.1503   -1.2257    0.5459 C   0  0  0  0  0  0  0  0  0  0  0  0
   -0.0849   -1.4752    0.7622 H   0  0  0  0  0  0  0  0  0  0  0  0
   -1.7060   -2.2298    1.1148 H   0  0  0  0  0  0  0  0  0  0  0  0
   -1.6241   -1.1125   -0.7696 C   0  0  0  0  0  0  0  0  0  0  0  0
   -2.0624   -2.0805   -1.1254 H   0  0  0  0  0  0  0  0  0  0  0  0
   -0.7356   -0.8283   -1.4263 H   0  0  0  0  0  0  0  0  0  0  0  0
    1.6591    0.2913   -0.0306 Br  0  0  0  0  0 15  0  0  0  0  0  0
   -1.2019    0.2819    1.0829 C   0  0  0  0  0  0  0  0  0  0  0  0
   -0.2157    0.6873    1.1387 H   0  0  0  0  0  0  0  0  0  0  0  0
   -1.6087    0.2211    2.1750 H   0  0  0  0  0  0  0  0  0  0  0  0
   -2.4639    0.6772    0.2453 C   0  0  0  0  0  0  0  0  0  0  0  0
   -2.6060    1.6690   -0.1019 H   0  0  0  0  0  0  0  0  0  0  0  0
   -3.2822    0.4141    0.9770 H   0  0  0  0  0  0  0  0  0  0  0  0
   -2.5791   -0.1744   -0.8994 O   0  0  0  0  0  0  0  0  0  0  0  0
  1  2  1  0  0  0  0
  1  8  1  0  0  0  0
  1  3  1  0  0  0  0
  4  1  1  0  0  0  0
  5  4  1  0  0  0  0
  6  4  1  0  0  0  0
  8  9  1  0  0  0  0
  8 10  1  0  0  0  0
 11 13  1  0  0  0  0
 11  8  1  0  0  0  0
 12 11  1  0  0  0  0
 14  4  1  0  0  0  0
 14 11  1  0  0  0  0
M  END
$$$$
Title Card Required
 OpenBabel06272217483D

 14 13  0  0  0  0  0  0  0  0999 V2000
   -1.1562   -1.2316    0.5591 C   0  0  0  0  0  0  0  0  0  0  0  0
   -0.1189   -1.3903    0.7746 H   0  0  0  0  0  0  0  0  0  0  0  0
   -1.6630   -2.2703    1.0437 H   0  0  0  0  0  0  0  0  0  0  0  0
   -1.5985   -1.1303   -0.7686 C   0  0  0  0  0  0  0  0  0  0  0  0
   -2.0270   -2.1294   -1.1713 H   0  0  0  0  0  0  0  0  0  0  0  0
   -0.7357   -0.7766   -1.4521 H   0  0  0  0  0  0  0  0  0  0  0  0
    1.6560    0.2906   -0.0325 Br  0  0  0  0  0 15  0  0  0  0  0  0
   -1.2129    0.2828    1.1000 C   0  0  0  0  0  0  0  0  0  0  0  0
   -0.1364    0.6316    1.1234 H   0  0  0  0  0  0  0  0  0  0  0  0
   -1.5763    0.2103    2.1565 H   0  0  0  0  0  0  0  0  0  0  0  0
   -2.4698    0.6920    0.2489 C   0  0  0  0  0  0  0  0  0  0  0  0
   -2.6164    1.6490   -0.1150 H   0  0  0  0  0  0  0  0  0  0  0  0
   -3.2460    0.4760    1.0178 H   0  0  0  0  0  0  0  0  0  0  0  0
   -2.5775   -0.1663   -0.9075 O   0  0  0  0  0  0  0  0  0  0  0  0
  1  2  1  0  0  0  0
  1  3  1  0  0  0  0
  1  8  1  0  0  0  0
  4  1  1  0  0  0  0
  5  4  1  0  0  0  0
  6  4  1  0  0  0  0
  8  9  1  0  0  0  0
  8 10  1  0  0  0  0
 11 13  1  0  0  0  0
 11  8  1  0  0  0  0
 12 11  1  0  0  0  0
 14  4  1  0  0  0  0
 14 11  1  0  0  0  0
M  END
$$$$
Title Card Required
 OpenBabel06272217483D

 14 13  0  0  0  0  0  0  0  0999 V2000
   -1.1621   -1.2395    0.5779 C   0  0  0  0  0  0  0  0  0  0  0  0
   -0.1413   -1.3108    0.7773 H   0  0  0  0  0  0  0  0  0  0  0  0
   -1.6127   -2.2753    0.9683 H   0  0  0  0  0  0  0  0  0  0  0  0
   -1.5711   -1.1501   -0.7735 C   0  0  0  0  0  0  0  0  0  0  0  0
   -1.9825   -2.1651   -1.2149 H   0  0  0  0  0  0  0  0  0  0  0  0
   -0.7442   -0.7330   -1.4699 H   0  0  0  0  0  0  0  0  0  0  0  0
    1.6530    0.2898   -0.0345 Br  0  0  0  0  0 15  0  0  0  0  0  0
   -1.2263    0.2817    1.1185 C   0  0  0  0  0  0  0  0  0  0  0  0
   -0.0697    0.5786    1.0976 H   0  0  0  0  0  0  0  0  0  0  0  0
   -1.5403    0.2028    2.1339 H   0  0  0  0  0  0  0  0  0  0  0  0
   -2.4754    0.7052    0.2538 C   0  0  0  0  0  0  0  0  0  0  0  0
   -2.6260    1.6582   -0.1351 H   0  0  0  0  0  0  0  0  0  0  0  0
   -3.2142    0.5402    1.0509 H   0  0  0  0  0  0  0  0  0  0  0  0
   -2.5766   -0.1569   -0.9146 O   0  0  0  0  0  0  0  0  0  0  0  0
  1  2  1  0  0  0  0
  1  3  1  0  0  0  0
  1  8  1  0  0  0  0
  4  1  1  0  0  0  0
  5  4  1  0  0  0  0
  6  4  1  0  0  0  0
  8 10  1  0  0  0  0
  9  8  1  0  0  0  0
 11 13  1  0  0  0  0
 11  8  1  0  0  0  0
 12 11  1  0  0  0  0
 14  4  1  0  0  0  0
 14 11  1  0  0  0  0
M  END
$$$$
Title Card Required
 OpenBabel06272217483D

 14 13  0  0  0  0  0  0  0  0999 V2000
   -1.1688   -1.2491    0.6013 C   0  0  0  0  0  0  0  0  0  0  0  0
   -0.1365   -1.2415    0.7724 H   0  0  0  0  0  0  0  0  0  0  0  0
   -1.5589   -2.2488    0.8969 H   0  0  0  0  0  0  0  0  0  0  0  0
   -1.5423   -1.1711   -0.7847 C   0  0  0  0  0  0  0  0  0  0  0  0
   -1.9271   -2.1803   -1.2525 H   0  0  0  0  0  0  0  0  0  0  0  0
   -0.7600   -0.7017   -1.4763 H   0  0  0  0  0  0  0  0  0  0  0  0
    1.6502    0.2891   -0.0367 Br  0  0  0  0  0 15  0  0  0  0  0  0
   -1.2404    0.2788    1.1367 C   0  0  0  0  0  0  0  0  0  0  0  0
   -0.0325    0.5271    1.0619 H   0  0  0  0  0  0  0  0  0  0  0  0
   -1.5079    0.1988    2.1272 H   0  0  0  0  0  0  0  0  0  0  0  0
   -2.4801    0.7167    0.2595 C   0  0  0  0  0  0  0  0  0  0  0  0
   -2.6328    1.6973   -0.1622 H   0  0  0  0  0  0  0  0  0  0  0  0
   -3.1941    0.6038    1.0775 H   0  0  0  0  0  0  0  0  0  0  0  0
   -2.5762   -0.1466   -0.9204 O   0  0  0  0  0  0  0  0  0  0  0  0
  1  2  1  0  0  0  0
  1  3  1  0  0  0  0
  1  8  1  0  0  0  0
  4  1  1  0  0  0  0
  5  4  1  0  0  0  0
  6  4  1  0  0  0  0
  8 10  1  0  0  0  0
  9  8  1  0  0  0  0
 11 13  1  0  0  0  0
 11  8  1  0  0  0  0
 12 11  1  0  0  0  0
 14  4  1  0  0  0  0
 14 11  1  0  0  0  0
M  END
$$$$
Title Card Required
 OpenBabel06272217483D

 14 13  0  0  0  0  0  0  0  0999 V2000
   -1.1755   -1.2588    0.6276 C   0  0  0  0  0  0  0  0  0  0  0  0
   -0.1022   -1.1876    0.7601 H   0  0  0  0  0  0  0  0  0  0  0  0
   -1.5110   -2.2092    0.8438 H   0  0  0  0  0  0  0  0  0  0  0  0
   -1.5125   -1.1921   -0.8021 C   0  0  0  0  0  0  0  0  0  0  0  0
   -1.8616   -2.1724   -1.2815 H   0  0  0  0  0  0  0  0  0  0  0  0
   -0.7787   -0.6855   -1.4707 H   0  0  0  0  0  0  0  0  0  0  0  0
    1.6474    0.2883   -0.0392 Br  0  0  0  0  0 15  0  0  0  0  0  0
   -1.2541    0.2738    1.1525 C   0  0  0  0  0  0  0  0  0  0  0  0
   -0.0374    0.4808    1.0185 H   0  0  0  0  0  0  0  0  0  0  0  0
   -1.4864    0.1992    2.1579 H   0  0  0  0  0  0  0  0  0  0  0  0
   -2.4836    0.7276    0.2653 C   0  0  0  0  0  0  0  0  0  0  0  0
   -2.6321    1.7525   -0.1895 H   0  0  0  0  0  0  0  0  0  0  0  0
   -3.1930    0.6635    1.0974 H   0  0  0  0  0  0  0  0  0  0  0  0
   -2.5761   -0.1358   -0.9245 O   0  0  0  0  0  0  0  0  0  0  0  0
  1  2  1  0  0  0  0
  1  3  1  0  0  0  0
  1  8  1  0  0  0  0
  4  1  1  0  0  0  0
  5  4  1  0  0  0  0
  6  4  1  0  0  0  0
  8 10  1  0  0  0  0
  9  8  1  0  0  0  0
 11 13  1  0  0  0  0
 11  8  1  0  0  0  0
 12 11  1  0  0  0  0
 14  4  1  0  0  0  0
 14 11  1  0  0  0  0
M  END
$$$$
Title Card Required
 OpenBabel06272217483D

 14 13  0  0  0  0  0  0  0  0999 V2000
   -1.1795   -1.2655    0.6544 C   0  0  0  0  0  0  0  0  0  0  0  0
   -0.0538   -1.1561    0.7394 H   0  0  0  0  0  0  0  0  0  0  0  0
   -1.4851   -2.1968    0.8275 H   0  0  0  0  0  0  0  0  0  0  0  0
   -1.4824   -1.2114   -0.8240 C   0  0  0  0  0  0  0  0  0  0  0  0
   -1.7902   -2.1465   -1.3029 H   0  0  0  0  0  0  0  0  0  0  0  0
   -0.7900   -0.6831   -1.4569 H   0  0  0  0  0  0  0  0  0  0  0  0
    1.6447    0.2875   -0.0418 Br  0  0  0  0  0 15  0  0  0  0  0  0
   -1.2672    0.2661    1.1651 C   0  0  0  0  0  0  0  0  0  0  0  0
   -0.0928    0.4465    0.9709 H   0  0  0  0  0  0  0  0  0  0  0  0
   -1.4766    0.2064    2.2287 H   0  0  0  0  0  0  0  0  0  0  0  0
   -2.4857    0.7394    0.2704 C   0  0  0  0  0  0  0  0  0  0  0  0
   -2.6182    1.8032   -0.2073 H   0  0  0  0  0  0  0  0  0  0  0  0
   -3.2151    0.7171    1.1074 H   0  0  0  0  0  0  0  0  0  0  0  0
   -2.5761   -0.1248   -0.9265 O   0  0  0  0  0  0  0  0  0  0  0  0
  1  2  1  0  0  0  0
  1  3  1  0  0  0  0
  1  8  1  0  0  0  0
  4  1  1  0  0  0  0
  5  4  1  0  0  0  0
  6  4  1  0  0  0  0
  8 10  1  0  0  0  0
  9  8  1  0  0  0  0
 11 13  1  0  0  0  0
 11  8  1  0  0  0  0
 12 11  1  0  0  0  0
 14  4  1  0  0  0  0
 14 11  1  0  0  0  0
M  END
$$$$
Title Card Required
 OpenBabel06272217483D

 14 13  0  0  0  0  0  0  0  0999 V2000
   -1.1778   -1.2663    0.6783 C   0  0  0  0  0  0  0  0  0  0  0  0
   -0.0151   -1.1556    0.7126 H   0  0  0  0  0  0  0  0  0  0  0  0
   -1.4923   -2.2411    0.8588 H   0  0  0  0  0  0  0  0  0  0  0  0
   -1.4542   -1.2261   -0.8464 C   0  0  0  0  0  0  0  0  0  0  0  0
   -1.7257   -2.1217   -1.3229 H   0  0  0  0  0  0  0  0  0  0  0  0
   -0.7785   -0.6866   -1.4448 H   0  0  0  0  0  0  0  0  0  0  0  0
    1.6422    0.2866   -0.0446 Br  0  0  0  0  0 15  0  0  0  0  0  0
   -1.2800    0.2556    1.1756 C   0  0  0  0  0  0  0  0  0  0  0  0
   -0.1928    0.4343    0.9262 H   0  0  0  0  0  0  0  0  0  0  0  0
   -1.4729    0.2230    2.3092 H   0  0  0  0  0  0  0  0  0  0  0  0
   -2.4864    0.7524    0.2741 C   0  0  0  0  0  0  0  0  0  0  0  0
   -2.5884    1.8312   -0.2071 H   0  0  0  0  0  0  0  0  0  0  0  0
   -3.2572    0.7600    1.1001 H   0  0  0  0  0  0  0  0  0  0  0  0
   -2.5762   -0.1143   -0.9262 O   0  0  0  0  0  0  0  0  0  0  0  0
  1  2  1  0  0  0  0
  1  3  1  0  0  0  0
  1  8  1  0  0  0  0
  4  1  1  0  0  0  0
  5  4  1  0  0  0  0
  6  4  1  0  0  0  0
  8 10  1  0  0  0  0
  9  8  1  0  0  0  0
 11 13  1  0  0  0  0
 11  8  1  0  0  0  0
 12 11  1  0  0  0  0
 14  4  1  0  0  0  0
 14 11  1  0  0  0  0
M  END
$$$$
Title Card Required
 OpenBabel06272217483D

 14 13  0  0  0  0  0  0  0  0999 V2000
   -1.1707   -1.2638    0.6975 C   0  0  0  0  0  0  0  0  0  0  0  0
    0.0011   -1.1857    0.6858 H   0  0  0  0  0  0  0  0  0  0  0  0
   -1.5208   -2.3098    0.9263 H   0  0  0  0  0  0  0  0  0  0  0  0
   -1.4295   -1.2340   -0.8650 C   0  0  0  0  0  0  0  0  0  0  0  0
   -1.6794   -2.1202   -1.3508 H   0  0  0  0  0  0  0  0  0  0  0  0
   -0.7361   -0.6869   -1.4421 H   0  0  0  0  0  0  0  0  0  0  0  0
    1.6401    0.2859   -0.0474 Br  0  0  0  0  0 15  0  0  0  0  0  0
   -1.2942    0.2423    1.1858 C   0  0  0  0  0  0  0  0  0  0  0  0
   -0.3093    0.4496    0.8873 H   0  0  0  0  0  0  0  0  0  0  0  0
   -1.4685    0.2484    2.3659 H   0  0  0  0  0  0  0  0  0  0  0  0
   -2.4864    0.7659    0.2766 C   0  0  0  0  0  0  0  0  0  0  0  0
   -2.5442    1.8318   -0.1881 H   0  0  0  0  0  0  0  0  0  0  0  0
   -3.3094    0.7902    1.0711 H   0  0  0  0  0  0  0  0  0  0  0  0
   -2.5761   -0.1049   -0.9237 O   0  0  0  0  0  0  0  0  0  0  0  0
  1  3  1  0  0  0  0
  1  8  1  0  0  0  0
  2  1  1  0  0  0  0
  4  1  1  0  0  0  0
  5  4  1  0  0  0  0
  6  4  1  0  0  0  0
  8 10  1  0  0  0  0
  9  8  1  0  0  0  0
 11 13  1  0  0  0  0
 11  8  1  0  0  0  0
 12 11  1  0  0  0  0
 14  4  1  0  0  0  0
 14 11  1  0  0  0  0
M  END
$$$$
Title Card Required
 OpenBabel06272217483D

 14 13  0  0  0  0  0  0  0  0999 V2000
   -1.1599   -1.2621    0.7123 C   0  0  0  0  0  0  0  0  0  0  0  0
   -0.0055   -1.2393    0.6642 H   0  0  0  0  0  0  0  0  0  0  0  0
   -1.5536   -2.3581    1.0123 H   0  0  0  0  0  0  0  0  0  0  0  0
   -1.4084   -1.2351   -0.8788 C   0  0  0  0  0  0  0  0  0  0  0  0
   -1.6527   -2.1452   -1.3885 H   0  0  0  0  0  0  0  0  0  0  0  0
   -0.6684   -0.6829   -1.4458 H   0  0  0  0  0  0  0  0  0  0  0  0
    1.6382    0.2851   -0.0502 Br  0  0  0  0  0 15  0  0  0  0  0  0
   -1.3127    0.2264    1.1970 C   0  0  0  0  0  0  0  0  0  0  0  0
   -0.4032    0.4953    0.8489 H   0  0  0  0  0  0  0  0  0  0  0  0
   -1.4603    0.2800    2.3848 H   0  0  0  0  0  0  0  0  0  0  0  0
   -2.4860    0.7790    0.2784 C   0  0  0  0  0  0  0  0  0  0  0  0
   -2.4880    1.8126   -0.1549 H   0  0  0  0  0  0  0  0  0  0  0  0
   -3.3636    0.8086    1.0203 H   0  0  0  0  0  0  0  0  0  0  0  0
   -2.5755   -0.0967   -0.9195 O   0  0  0  0  0  0  0  0  0  0  0  0
  1  3  1  0  0  0  0
  1  8  1  0  0  0  0
  2  1  1  0  0  0  0
  4  1  1  0  0  0  0
  5  4  1  0  0  0  0
  6  4  1  0  0  0  0
  8 10  1  0  0  0  0
  9  8  1  0  0  0  0
 11 13  1  0  0  0  0
 11  8  1  0  0  0  0
 12 11  1  0  0  0  0
 14  4  1  0  0  0  0
 14 11  1  0  0  0  0
M  END
$$$$
Title Card Required
 OpenBabel06272217483D

 14 13  0  0  0  0  0  0  0  0999 V2000
   -1.1472   -1.2632    0.7230 C   0  0  0  0  0  0  0  0  0  0  0  0
   -0.0278   -1.3059    0.6522 H   0  0  0  0  0  0  0  0  0  0  0  0
   -1.5804   -2.3647    1.1004 H   0  0  0  0  0  0  0  0  0  0  0  0
   -1.3908   -1.2305   -0.8884 C   0  0  0  0  0  0  0  0  0  0  0  0
   -1.6403   -2.1792   -1.4265 H   0  0  0  0  0  0  0  0  0  0  0  0
   -0.5918   -0.6810   -1.4472 H   0  0  0  0  0  0  0  0  0  0  0  0
    1.6366    0.2845   -0.0530 Br  0  0  0  0  0 15  0  0  0  0  0  0
   -1.3358    0.2086    1.2094 C   0  0  0  0  0  0  0  0  0  0  0  0
   -0.4514    0.5681    0.8068 H   0  0  0  0  0  0  0  0  0  0  0  0
   -1.4489    0.3136    2.3675 H   0  0  0  0  0  0  0  0  0  0  0  0
   -2.4858    0.7898    0.2801 C   0  0  0  0  0  0  0  0  0  0  0  0
   -2.4233    1.7887   -0.1162 H   0  0  0  0  0  0  0  0  0  0  0  0
   -3.4135    0.8171    0.9525 H   0  0  0  0  0  0  0  0  0  0  0  0
   -2.5742   -0.0898   -0.9141 O   0  0  0  0  0  0  0  0  0  0  0  0
  1  3  1  0  0  0  0
  1  8  1  0  0  0  0
  2  1  1  0  0  0  0
  4  1  1  0  0  0  0
  5  4  1  0  0  0  0
  6  4  1  0  0  0  0
  8 10  1  0  0  0  0
  9  8  1  0  0  0  0
 11 13  1  0  0  0  0
 11  8  1  0  0  0  0
 12 11  1  0  0  0  0
 14  4  1  0  0  0  0
 14 11  1  0  0  0  0
M  END
$$$$
Title Card Required
 OpenBabel06272217483D

 14 13  0  0  0  0  0  0  0  0999 V2000
   -1.1344   -1.2671    0.7306 C   0  0  0  0  0  0  0  0  0  0  0  0
   -0.0543   -1.3777    0.6513 H   0  0  0  0  0  0  0  0  0  0  0  0
   -1.5982   -2.3300    1.1813 H   0  0  0  0  0  0  0  0  0  0  0  0
   -1.3761   -1.2222   -0.8952 C   0  0  0  0  0  0  0  0  0  0  0  0
   -1.6357   -2.2037   -1.4557 H   0  0  0  0  0  0  0  0  0  0  0  0
   -0.5204   -0.6866   -1.4400 H   0  0  0  0  0  0  0  0  0  0  0  0
    1.6353    0.2839   -0.0556 Br  0  0  0  0  0 15  0  0  0  0  0  0
   -1.3614    0.1901    1.2214 C   0  0  0  0  0  0  0  0  0  0  0  0
   -0.4695    0.6554    0.7669 H   0  0  0  0  0  0  0  0  0  0  0  0
   -1.4370    0.3462    2.3262 H   0  0  0  0  0  0  0  0  0  0  0  0
   -2.4862    0.7969    0.2821 C   0  0  0  0  0  0  0  0  0  0  0  0
   -2.3518    1.7759   -0.0796 H   0  0  0  0  0  0  0  0  0  0  0  0
   -3.4571    0.8186    0.8734 H   0  0  0  0  0  0  0  0  0  0  0  0
   -2.5721   -0.0842   -0.9081 O   0  0  0  0  0  0  0  0  0  0  0  0
  1  3  1  0  0  0  0
  1  8  1  0  0  0  0
  2  1  1  0  0  0  0
  4  1  1  0  0  0  0
  5  4  1  0  0  0  0
  6  4  1  0  0  0  0
  8 10  1  0  0  0  0
  9  8  1  0  0  0  0
 11 13  1  0  0  0  0
 11  8  1  0  0  0  0
 12 11  1  0  0  0  0
 14  4  1  0  0  0  0
 14 11  1  0  0  0  0
M  END
$$$$
Title Card Required
 OpenBabel06272217483D

 14 13  0  0  0  0  0  0  0  0999 V2000
   -1.1224   -1.2735    0.7359 C   0  0  0  0  0  0  0  0  0  0  0  0
   -0.0740   -1.4525    0.6611 H   0  0  0  0  0  0  0  0  0  0  0  0
   -1.6077   -2.2595    1.2521 H   0  0  0  0  0  0  0  0  0  0  0  0
   -1.3635   -1.2111   -0.9001 C   0  0  0  0  0  0  0  0  0  0  0  0
   -1.6345   -2.2090   -1.4719 H   0  0  0  0  0  0  0  0  0  0  0  0
   -0.4606   -0.7017   -1.4213 H   0  0  0  0  0  0  0  0  0  0  0  0
    1.6341    0.2833   -0.0583 Br  0  0  0  0  0 15  0  0  0  0  0  0
   -1.3872    0.1717    1.2315 C   0  0  0  0  0  0  0  0  0  0  0  0
   -0.4830    0.7424    0.7386 H   0  0  0  0  0  0  0  0  0  0  0  0
   -1.4267    0.3778    2.2772 H   0  0  0  0  0  0  0  0  0  0  0  0
   -2.4873    0.8000    0.2847 C   0  0  0  0  0  0  0  0  0  0  0  0
   -2.2722    1.7822   -0.0479 H   0  0  0  0  0  0  0  0  0  0  0  0
   -3.4955    0.8161    0.7859 H   0  0  0  0  0  0  0  0  0  0  0  0
   -2.5689   -0.0797   -0.9016 O   0  0  0  0  0  0  0  0  0  0  0  0
  1  8  1  0  0  0  0
  1  3  1  0  0  0  0
  2  1  1  0  0  0  0
  4  1  1  0  0  0  0
  5  4  1  0  0  0  0
  6  4  1  0  0  0  0
  8 10  1  0  0  0  0
  9  8  1  0  0  0  0
 11 13  1  0  0  0  0
 11  8  1  0  0  0  0
 12 11  1  0  0  0  0
 14  4  1  0  0  0  0
 14 11  1  0  0  0  0
M  END
$$$$
Title Card Required
 OpenBabel06272217483D

 14 13  0  0  0  0  0  0  0  0999 V2000
   -1.1117   -1.2818    0.7394 C   0  0  0  0  0  0  0  0  0  0  0  0
   -0.0784   -1.5289    0.6815 H   0  0  0  0  0  0  0  0  0  0  0  0
   -1.6111   -2.1598    1.3110 H   0  0  0  0  0  0  0  0  0  0  0  0
   -1.3525   -1.1975   -0.9034 C   0  0  0  0  0  0  0  0  0  0  0  0
   -1.6352   -2.1906   -1.4734 H   0  0  0  0  0  0  0  0  0  0  0  0
   -0.4157   -0.7261   -1.3905 H   0  0  0  0  0  0  0  0  0  0  0  0
    1.6330    0.2828   -0.0610 Br  0  0  0  0  0 15  0  0  0  0  0  0
   -1.4120    0.1541    1.2374 C   0  0  0  0  0  0  0  0  0  0  0  0
   -0.5067    0.8160    0.7287 H   0  0  0  0  0  0  0  0  0  0  0  0
   -1.4199    0.4099    2.2400 H   0  0  0  0  0  0  0  0  0  0  0  0
   -2.4893    0.7990    0.2873 C   0  0  0  0  0  0  0  0  0  0  0  0
   -2.1857    1.8044   -0.0197 H   0  0  0  0  0  0  0  0  0  0  0  0
   -3.5300    0.8125    0.6926 H   0  0  0  0  0  0  0  0  0  0  0  0
   -2.5643   -0.0761   -0.8946 O   0  0  0  0  0  0  0  0  0  0  0  0
  1  8  1  0  0  0  0
  1  3  1  0  0  0  0
  2  1  1  0  0  0  0
  4 14  1  0  0  0  0
  4  1  1  0  0  0  0
  5  4  1  0  0  0  0
  6  4  1  0  0  0  0
  8 10  1  0  0  0  0
  9  8  1  0  0  0  0
 11 13  1  0  0  0  0
 11  8  1  0  0  0  0
 12 11  1  0  0  0  0
 14 11  1  0  0  0  0
M  END
$$$$
Title Card Required
 OpenBabel06272217483D

 14 13  0  0  0  0  0  0  0  0999 V2000
   -1.1025   -1.2909    0.7412 C   0  0  0  0  0  0  0  0  0  0  0  0
   -0.0659   -1.6038    0.7124 H   0  0  0  0  0  0  0  0  0  0  0  0
   -1.6137   -2.0436    1.3581 H   0  0  0  0  0  0  0  0  0  0  0  0
   -1.3432   -1.1817   -0.9047 C   0  0  0  0  0  0  0  0  0  0  0  0
   -1.6374   -2.1484   -1.4605 H   0  0  0  0  0  0  0  0  0  0  0  0
   -0.3868   -0.7569   -1.3489 H   0  0  0  0  0  0  0  0  0  0  0  0
    1.6321    0.2823   -0.0638 Br  0  0  0  0  0 15  0  0  0  0  0  0
   -1.4350    0.1379    1.2379 C   0  0  0  0  0  0  0  0  0  0  0  0
   -0.5463    0.8661    0.7406 H   0  0  0  0  0  0  0  0  0  0  0  0
   -1.4175    0.4441    2.2307 H   0  0  0  0  0  0  0  0  0  0  0  0
   -2.4918    0.7950    0.2894 C   0  0  0  0  0  0  0  0  0  0  0  0
   -2.0987    1.8297    0.0087 H   0  0  0  0  0  0  0  0  0  0  0  0
   -3.5610    0.8105    0.5976 H   0  0  0  0  0  0  0  0  0  0  0  0
   -2.5581   -0.0735   -0.8873 O   0  0  0  0  0  0  0  0  0  0  0  0
  1  8  1  0  0  0  0
  1  3  1  0  0  0  0
  2  1  1  0  0  0  0
  4 14  1  0  0  0  0
  4  1  1  0  0  0  0
  5  4  1  0  0  0  0
  6  4  1  0  0  0  0
  8 10  1  0  0  0  0
  9  8  1  0  0  0  0
 11 13  1  0  0  0  0
 11  8  1  0  0  0  0
 12 11  1  0  0  0  0
 14 11  1  0  0  0  0
M  END
$$$$
Title Card Required
 OpenBabel06272217483D

 14 13  0  0  0  0  0  0  0  0999 V2000
   -1.0938   -1.2997    0.7410 C   0  0  0  0  0  0  0  0  0  0  0  0
   -0.0433   -1.6726    0.7536 H   0  0  0  0  0  0  0  0  0  0  0  0
   -1.6253   -1.9284    1.3985 H   0  0  0  0  0  0  0  0  0  0  0  0
   -1.3359   -1.1635   -0.9033 C   0  0  0  0  0  0  0  0  0  0  0  0
   -1.6427   -2.0867   -1.4364 H   0  0  0  0  0  0  0  0  0  0  0  0
   -0.3713   -0.7895   -1.2995 H   0  0  0  0  0  0  0  0  0  0  0  0
    1.6313    0.2818   -0.0667 Br  0  0  0  0  0 15  0  0  0  0  0  0
   -1.4555    0.1235    1.2329 C   0  0  0  0  0  0  0  0  0  0  0  0
   -0.6025    0.8860    0.7750 H   0  0  0  0  0  0  0  0  0  0  0  0
   -1.4200    0.4786    2.2498 H   0  0  0  0  0  0  0  0  0  0  0  0
   -2.4942    0.7890    0.2901 C   0  0  0  0  0  0  0  0  0  0  0  0
   -2.0201    1.8441    0.0403 H   0  0  0  0  0  0  0  0  0  0  0  0
   -3.5884    0.8129    0.5048 H   0  0  0  0  0  0  0  0  0  0  0  0
   -2.5497   -0.0721   -0.8799 O   0  0  0  0  0  0  0  0  0  0  0  0
  1  2  1  0  0  0  0
  1  8  1  0  0  0  0
  1  3  1  0  0  0  0
  4 14  1  0  0  0  0
  4  1  1  0  0  0  0
  5  4  1  0  0  0  0
  6  4  1  0  0  0  0
  8 10  1  0  0  0  0
  9  8  1  0  0  0  0
 11 13  1  0  0  0  0
 11  8  1  0  0  0  0
 12 11  1  0  0  0  0
 14 11  1  0  0  0  0
M  END
$$$$
Title Card Required
 OpenBabel06272217483D

 14 13  0  0  0  0  0  0  0  0999 V2000
   -1.0841   -1.3075    0.7381 C   0  0  0  0  0  0  0  0  0  0  0  0
   -0.0220   -1.7296    0.8050 H   0  0  0  0  0  0  0  0  0  0  0  0
   -1.6586   -1.8320    1.4410 H   0  0  0  0  0  0  0  0  0  0  0  0
   -1.3311   -1.1423   -0.8975 C   0  0  0  0  0  0  0  0  0  0  0  0
   -1.6553   -2.0159   -1.4077 H   0  0  0  0  0  0  0  0  0  0  0  0
   -0.3620   -0.8175   -1.2466 H   0  0  0  0  0  0  0  0  0  0  0  0
    1.6306    0.2813   -0.0698 Br  0  0  0  0  0 15  0  0  0  0  0  0
   -1.4734    0.1120    1.2241 C   0  0  0  0  0  0  0  0  0  0  0  0
   -0.6734    0.8713    0.8314 H   0  0  0  0  0  0  0  0  0  0  0  0
   -1.4291    0.5063    2.2830 H   0  0  0  0  0  0  0  0  0  0  0  0
   -2.4964    0.7817    0.2889 C   0  0  0  0  0  0  0  0  0  0  0  0
   -1.9592    1.8378    0.0763 H   0  0  0  0  0  0  0  0  0  0  0  0
   -3.6107    0.8223    0.4174 H   0  0  0  0  0  0  0  0  0  0  0  0
   -2.5385   -0.0721   -0.8726 O   0  0  0  0  0  0  0  0  0  0  0  0
  1  2  1  0  0  0  0
  1  8  1  0  0  0  0
  1  3  1  0  0  0  0
  4 14  1  0  0  0  0
  4  1  1  0  0  0  0
  5  4  1  0  0  0  0
  6  4  1  0  0  0  0
  8 10  1  0  0  0  0
  9  8  1  0  0  0  0
 11 13  1  0  0  0  0
 11  8  1  0  0  0  0
 12 11  1  0  0  0  0
 14 11  1  0  0  0  0
M  END
$$$$
Title Card Required
 OpenBabel06272217483D

 14 13  0  0  0  0  0  0  0  0999 V2000
   -1.0728   -1.3140    0.7325 C   0  0  0  0  0  0  0  0  0  0  0  0
   -0.0144   -1.7671    0.8648 H   0  0  0  0  0  0  0  0  0  0  0  0
   -1.7192   -1.7661    1.4855 H   0  0  0  0  0  0  0  0  0  0  0  0
   -1.3295   -1.1170   -0.8854 C   0  0  0  0  0  0  0  0  0  0  0  0
   -1.6823   -1.9543   -1.3860 H   0  0  0  0  0  0  0  0  0  0  0  0
   -0.3487   -0.8327   -1.1969 H   0  0  0  0  0  0  0  0  0  0  0  0
    1.6300    0.2809   -0.0731 Br  0  0  0  0  0 15  0  0  0  0  0  0
   -1.4883    0.1043    1.2139 C   0  0  0  0  0  0  0  0  0  0  0  0
   -0.7481    0.8243    0.9047 H   0  0  0  0  0  0  0  0  0  0  0  0
   -1.4481    0.5162    2.3112 H   0  0  0  0  0  0  0  0  0  0  0  0
   -2.4985    0.7736    0.2850 C   0  0  0  0  0  0  0  0  0  0  0  0
   -1.9256    1.8056    0.1146 H   0  0  0  0  0  0  0  0  0  0  0  0
   -3.6244    0.8409    0.3415 H   0  0  0  0  0  0  0  0  0  0  0  0
   -2.5238   -0.0737   -0.8657 O   0  0  0  0  0  0  0  0  0  0  0  0
  1  2  1  0  0  0  0
  1  8  1  0  0  0  0
  1  3  1  0  0  0  0
  4 14  1  0  0  0  0
  4  1  1  0  0  0  0
  5  4  1  0  0  0  0
  6  4  1  0  0  0  0
  8 10  1  0  0  0  0
  9  8  1  0  0  0  0
 11 13  1  0  0  0  0
 11  8  1  0  0  0  0
 12 11  1  0  0  0  0
 14 11  1  0  0  0  0
M  END
$$$$
Title Card Required
 OpenBabel06272217483D

 14 13  0  0  0  0  0  0  0  0999 V2000
   -1.0612   -1.3198    0.7261 C   0  0  0  0  0  0  0  0  0  0  0  0
   -0.0290   -1.7789    0.9291 H   0  0  0  0  0  0  0  0  0  0  0  0
   -1.7969   -1.7311    1.5153 H   0  0  0  0  0  0  0  0  0  0  0  0
   -1.3317   -1.0871   -0.8656 C   0  0  0  0  0  0  0  0  0  0  0  0
   -1.7282   -1.9180   -1.3810 H   0  0  0  0  0  0  0  0  0  0  0  0
   -0.3247   -0.8283   -1.1571 H   0  0  0  0  0  0  0  0  0  0  0  0
    1.6295    0.2805   -0.0767 Br  0  0  0  0  0 15  0  0  0  0  0  0
   -1.5011    0.0995    1.2054 C   0  0  0  0  0  0  0  0  0  0  0  0
   -0.7965    0.7672    0.9803 H   0  0  0  0  0  0  0  0  0  0  0  0
   -1.4809    0.4982    2.3199 H   0  0  0  0  0  0  0  0  0  0  0  0
   -2.5006    0.7650    0.2781 C   0  0  0  0  0  0  0  0  0  0  0  0
   -1.9251    1.7500    0.1500 H   0  0  0  0  0  0  0  0  0  0  0  0
   -3.6256    0.8698    0.2854 H   0  0  0  0  0  0  0  0  0  0  0  0
   -2.5049   -0.0773   -0.8596 O   0  0  0  0  0  0  0  0  0  0  0  0
  1  2  1  0  0  0  0
  1  8  1  0  0  0  0
  1  3  1  0  0  0  0
  4 14  1  0  0  0  0
  4  1  1  0  0  0  0
  5  4  1  0  0  0  0
  6  4  1  0  0  0  0
  8 10  1  0  0  0  0
  9  8  1  0  0  0  0
 11 13  1  0  0  0  0
 11  8  1  0  0  0  0
 12 11  1  0  0  0  0
 14 11  1  0  0  0  0
M  END
$$$$
Title Card Required
 OpenBabel06272217483D

 14 13  0  0  0  0  0  0  0  0999 V2000
   -1.0525   -1.3252    0.7212 C   0  0  0  0  0  0  0  0  0  0  0  0
   -0.0637   -1.7646    0.9911 H   0  0  0  0  0  0  0  0  0  0  0  0
   -1.8701   -1.7239    1.5094 H   0  0  0  0  0  0  0  0  0  0  0  0
   -1.3374   -1.0553   -0.8396 C   0  0  0  0  0  0  0  0  0  0  0  0
   -1.7840   -1.9023   -1.3891 H   0  0  0  0  0  0  0  0  0  0  0  0
   -0.2968   -0.8042   -1.1310 H   0  0  0  0  0  0  0  0  0  0  0  0
    1.6292    0.2801   -0.0802 Br  0  0  0  0  0 15  0  0  0  0  0  0
   -1.5140    0.0952    1.2016 C   0  0  0  0  0  0  0  0  0  0  0  0
   -0.7757    0.7414    1.0374 H   0  0  0  0  0  0  0  0  0  0  0  0
   -1.5287    0.4489    2.3059 H   0  0  0  0  0  0  0  0  0  0  0  0
   -2.5032    0.7557    0.2687 C   0  0  0  0  0  0  0  0  0  0  0  0
   -1.9532    1.6875    0.1743 H   0  0  0  0  0  0  0  0  0  0  0  0
   -3.6139    0.9064    0.2571 H   0  0  0  0  0  0  0  0  0  0  0  0
   -2.4825   -0.0827   -0.8549 O   0  0  0  0  0  0  0  0  0  0  0  0
  1  2  1  0  0  0  0
  1  8  1  0  0  0  0
  1  3  1  0  0  0  0
  4  1  1  0  0  0  0
  5  4  1  0  0  0  0
  6  4  1  0  0  0  0
  8 10  1  0  0  0  0
  9  8  1  0  0  0  0
 11  8  1  0  0  0  0
 12 11  1  0  0  0  0
 13 11  1  0  0  0  0
 14  4  1  0  0  0  0
 14 11  1  0  0  0  0
M  END
$$$$
Title Card Required
 OpenBabel06272217483D

 14 13  0  0  0  0  0  0  0  0999 V2000
   -1.0498   -1.3294    0.7191 C   0  0  0  0  0  0  0  0  0  0  0  0
   -0.1025   -1.7345    1.0443 H   0  0  0  0  0  0  0  0  0  0  0  0
   -1.9207   -1.7378    1.4644 H   0  0  0  0  0  0  0  0  0  0  0  0
   -1.3451   -1.0267   -0.8125 C   0  0  0  0  0  0  0  0  0  0  0  0
   -1.8297   -1.8891   -1.3966 H   0  0  0  0  0  0  0  0  0  0  0  0
   -0.2806   -0.7683   -1.1176 H   0  0  0  0  0  0  0  0  0  0  0  0
    1.6290    0.2799   -0.0835 Br  0  0  0  0  0 15  0  0  0  0  0  0
   -1.5259    0.0910    1.2024 C   0  0  0  0  0  0  0  0  0  0  0  0
   -0.6952    0.7507    1.0717 H   0  0  0  0  0  0  0  0  0  0  0  0
   -1.5869    0.3787    2.2797 H   0  0  0  0  0  0  0  0  0  0  0  0
   -2.5066    0.7457    0.2585 C   0  0  0  0  0  0  0  0  0  0  0  0
   -1.9904    1.6463    0.1810 H   0  0  0  0  0  0  0  0  0  0  0  0
   -3.5962    0.9433    0.2572 H   0  0  0  0  0  0  0  0  0  0  0  0
   -2.4592   -0.0890   -0.8522 O   0  0  0  0  0  0  0  0  0  0  0  0
  1  2  1  0  0  0  0
  1  8  1  0  0  0  0
  1  3  1  0  0  0  0
  4  1  1  0  0  0  0
  5  4  1  0  0  0  0
  6  4  1  0  0  0  0
  8 10  1  0  0  0  0
  9  8  1  0  0  0  0
 11  8  1  0  0  0  0
 12 11  1  0  0  0  0
 13 11  1  0  0  0  0
 14  4  1  0  0  0  0
 14 11  1  0  0  0  0
M  END
$$$$
Title Card Required
 OpenBabel06272217483D

 14 13  0  0  0  0  0  0  0  0999 V2000
   -1.0537   -1.3318    0.7193 C   0  0  0  0  0  0  0  0  0  0  0  0
   -0.1315   -1.6988    1.0917 H   0  0  0  0  0  0  0  0  0  0  0  0
   -1.9483   -1.7670    1.3882 H   0  0  0  0  0  0  0  0  0  0  0  0
   -1.3536   -1.0022   -0.7860 C   0  0  0  0  0  0  0  0  0  0  0  0
   -1.8569   -1.8672   -1.3954 H   0  0  0  0  0  0  0  0  0  0  0  0
   -0.2836   -0.7264   -1.1120 H   0  0  0  0  0  0  0  0  0  0  0  0
    1.6290    0.2796   -0.0867 Br  0  0  0  0  0 15  0  0  0  0  0  0
   -1.5348    0.0881    1.2060 C   0  0  0  0  0  0  0  0  0  0  0  0
   -0.5998    0.7655    1.0948 H   0  0  0  0  0  0  0  0  0  0  0  0
   -1.6536    0.2964    2.2553 H   0  0  0  0  0  0  0  0  0  0  0  0
   -2.5106    0.7341    0.2482 C   0  0  0  0  0  0  0  0  0  0  0  0
   -2.0212    1.6410    0.1703 H   0  0  0  0  0  0  0  0  0  0  0  0
   -3.5795    0.9769    0.2793 H   0  0  0  0  0  0  0  0  0  0  0  0
   -2.4356   -0.0956   -0.8510 O   0  0  0  0  0  0  0  0  0  0  0  0
  1  2  1  0  0  0  0
  1  8  1  0  0  0  0
  1  3  1  0  0  0  0
  4  1  1  0  0  0  0
  5  4  1  0  0  0  0
  6  4  1  0  0  0  0
  8 10  1  0  0  0  0
  9  8  1  0  0  0  0
 11 13  1  0  0  0  0
 11  8  1  0  0  0  0
 12 11  1  0  0  0  0
 14  4  1  0  0  0  0
 14 11  1  0  0  0  0
M  END
$$$$
Title Card Required
 OpenBabel06272217483D

 14 13  0  0  0  0  0  0  0  0999 V2000
   -1.0642   -1.3323    0.7211 C   0  0  0  0  0  0  0  0  0  0  0  0
   -0.1438   -1.6633    1.1355 H   0  0  0  0  0  0  0  0  0  0  0  0
   -1.9563   -1.8075    1.2898 H   0  0  0  0  0  0  0  0  0  0  0  0
   -1.3616   -0.9821   -0.7612 C   0  0  0  0  0  0  0  0  0  0  0  0
   -1.8633   -1.8360   -1.3835 H   0  0  0  0  0  0  0  0  0  0  0  0
   -0.3070   -0.6818   -1.1112 H   0  0  0  0  0  0  0  0  0  0  0  0
    1.6291    0.2795   -0.0896 Br  0  0  0  0  0 15  0  0  0  0  0  0
   -1.5391    0.0874    1.2107 C   0  0  0  0  0  0  0  0  0  0  0  0
   -0.5205    0.7672    1.1144 H   0  0  0  0  0  0  0  0  0  0  0  0
   -1.7275    0.2089    2.2445 H   0  0  0  0  0  0  0  0  0  0  0  0
   -2.5147    0.7213    0.2382 C   0  0  0  0  0  0  0  0  0  0  0  0
   -2.0417    1.6692    0.1445 H   0  0  0  0  0  0  0  0  0  0  0  0
   -3.5683    1.0039    0.3179 H   0  0  0  0  0  0  0  0  0  0  0  0
   -2.4124   -0.1019   -0.8510 O   0  0  0  0  0  0  0  0  0  0  0  0
  1  2  1  0  0  0  0
  1  8  1  0  0  0  0
  1  3  1  0  0  0  0
  4  1  1  0  0  0  0
  5  4  1  0  0  0  0
  6  4  1  0  0  0  0
  8 10  1  0  0  0  0
  9  8  1  0  0  0  0
 11 13  1  0  0  0  0
 11  8  1  0  0  0  0
 12 11  1  0  0  0  0
 14  4  1  0  0  0  0
 14 11  1  0  0  0  0
M  END
$$$$
Title Card Required
 OpenBabel06272217483D

 14 13  0  0  0  0  0  0  0  0999 V2000
   -1.0798   -1.3309    0.7240 C   0  0  0  0  0  0  0  0  0  0  0  0
   -0.1418   -1.6294    1.1742 H   0  0  0  0  0  0  0  0  0  0  0  0
   -1.9508   -1.8572    1.1800 H   0  0  0  0  0  0  0  0  0  0  0  0
   -1.3681   -0.9665   -0.7388 C   0  0  0  0  0  0  0  0  0  0  0  0
   -1.8500   -1.7996   -1.3627 H   0  0  0  0  0  0  0  0  0  0  0  0
   -0.3476   -0.6374   -1.1135 H   0  0  0  0  0  0  0  0  0  0  0  0
    1.6293    0.2793   -0.0925 Br  0  0  0  0  0 15  0  0  0  0  0  0
   -1.5389    0.0888    1.2159 C   0  0  0  0  0  0  0  0  0  0  0  0
   -0.4702    0.7515    1.1338 H   0  0  0  0  0  0  0  0  0  0  0  0
   -1.8066    0.1213    2.2512 H   0  0  0  0  0  0  0  0  0  0  0  0
   -2.5181    0.7090    0.2289 C   0  0  0  0  0  0  0  0  0  0  0  0
   -2.0564    1.7141    0.1078 H   0  0  0  0  0  0  0  0  0  0  0  0
   -3.5638    1.0218    0.3675 H   0  0  0  0  0  0  0  0  0  0  0  0
   -2.3907   -0.1074   -0.8521 O   0  0  0  0  0  0  0  0  0  0  0  0
  1  2  1  0  0  0  0
  1  3  1  0  0  0  0
  1  8  1  0  0  0  0
  4  1  1  0  0  0  0
  5  4  1  0  0  0  0
  6  4  1  0  0  0  0
  8 10  1  0  0  0  0
  9  8  1  0  0  0  0
 11 13  1  0  0  0  0
 11  8  1  0  0  0  0
 12 11  1  0  0  0  0
 14  4  1  0  0  0  0
 14 11  1  0  0  0  0
M  END
$$$$
Title Card Required
 OpenBabel06272217483D

 14 13  0  0  0  0  0  0  0  0999 V2000
   -1.0990   -1.3276    0.7277 C   0  0  0  0  0  0  0  0  0  0  0  0
   -0.1336   -1.5960    1.2047 H   0  0  0  0  0  0  0  0  0  0  0  0
   -1.9400   -1.9166    1.0674 H   0  0  0  0  0  0  0  0  0  0  0  0
   -1.3722   -0.9551   -0.7186 C   0  0  0  0  0  0  0  0  0  0  0  0
   -1.8200   -1.7643   -1.3366 H   0  0  0  0  0  0  0  0  0  0  0  0
   -0.3995   -0.5939   -1.1178 H   0  0  0  0  0  0  0  0  0  0  0  0
    1.6296    0.2793   -0.0953 Br  0  0  0  0  0 15  0  0  0  0  0  0
   -1.5350    0.0918    1.2219 C   0  0  0  0  0  0  0  0  0  0  0  0
   -0.4507    0.7194    1.1553 H   0  0  0  0  0  0  0  0  0  0  0  0
   -1.8885    0.0355    2.2685 H   0  0  0  0  0  0  0  0  0  0  0  0
   -2.5202    0.6986    0.2205 C   0  0  0  0  0  0  0  0  0  0  0  0
   -2.0712    1.7589    0.0641 H   0  0  0  0  0  0  0  0  0  0  0  0
   -3.5638    1.0287    0.4242 H   0  0  0  0  0  0  0  0  0  0  0  0
   -2.3711   -0.1116   -0.8539 O   0  0  0  0  0  0  0  0  0  0  0  0
  1  3  1  0  0  0  0
  1  2  1  0  0  0  0
  1  8  1  0  0  0  0
  4  1  1  0  0  0  0
  5  4  1  0  0  0  0
  6  4  1  0  0  0  0
  8 10  1  0  0  0  0
  9  8  1  0  0  0  0
 11 13  1  0  0  0  0
 11  8  1  0  0  0  0
 12 11  1  0  0  0  0
 14  4  1  0  0  0  0
 14 11  1  0  0  0  0
M  END
$$$$
Title Card Required
 OpenBabel06272217483D

 14 13  0  0  0  0  0  0  0  0999 V2000
   -1.1205   -1.3225    0.7320 C   0  0  0  0  0  0  0  0  0  0  0  0
   -0.1278   -1.5618    1.2237 H   0  0  0  0  0  0  0  0  0  0  0  0
   -1.9309   -1.9884    0.9572 H   0  0  0  0  0  0  0  0  0  0  0  0
   -1.3731   -0.9476   -0.7003 C   0  0  0  0  0  0  0  0  0  0  0  0
   -1.7764   -1.7376   -1.3096 H   0  0  0  0  0  0  0  0  0  0  0  0
   -0.4559   -0.5507   -1.1246 H   0  0  0  0  0  0  0  0  0  0  0  0
    1.6300    0.2792   -0.0980 Br  0  0  0  0  0 15  0  0  0  0  0  0
   -1.5284    0.0960    1.2299 C   0  0  0  0  0  0  0  0  0  0  0  0
   -0.4613    0.6726    1.1806 H   0  0  0  0  0  0  0  0  0  0  0  0
   -1.9701   -0.0473    2.2852 H   0  0  0  0  0  0  0  0  0  0  0  0
   -2.5206    0.6911    0.2130 C   0  0  0  0  0  0  0  0  0  0  0  0
   -2.0900    1.7925    0.0162 H   0  0  0  0  0  0  0  0  0  0  0  0
   -3.5644    1.0225    0.4851 H   0  0  0  0  0  0  0  0  0  0  0  0
   -2.3540   -0.1139   -0.8566 O   0  0  0  0  0  0  0  0  0  0  0  0
  1  3  1  0  0  0  0
  1  2  1  0  0  0  0
  1  8  1  0  0  0  0
  4  1  1  0  0  0  0
  5  4  1  0  0  0  0
  6  4  1  0  0  0  0
  8 10  1  0  0  0  0
  9  8  1  0  0  0  0
 11 13  1  0  0  0  0
 11  8  1  0  0  0  0
 12 11  1  0  0  0  0
 14  4  1  0  0  0  0
 14 11  1  0  0  0  0
M  END
$$$$
Title Card Required
 OpenBabel06272217483D

 14 13  0  0  0  0  0  0  0  0999 V2000
   -1.1435   -1.3154    0.7372 C   0  0  0  0  0  0  0  0  0  0  0  0
   -0.1310   -1.5266    1.2277 H   0  0  0  0  0  0  0  0  0  0  0  0
   -1.9260   -2.0729    0.8534 H   0  0  0  0  0  0  0  0  0  0  0  0
   -1.3699   -0.9437   -0.6833 C   0  0  0  0  0  0  0  0  0  0  0  0
   -1.7225   -1.7291   -1.2877 H   0  0  0  0  0  0  0  0  0  0  0  0
   -0.5077   -0.5068   -1.1346 H   0  0  0  0  0  0  0  0  0  0  0  0
    1.6306    0.2792   -0.1009 Br  0  0  0  0  0 15  0  0  0  0  0  0
   -1.5205    0.1007    1.2408 C   0  0  0  0  0  0  0  0  0  0  0  0
   -0.4991    0.6145    1.2113 H   0  0  0  0  0  0  0  0  0  0  0  0
   -2.0460   -0.1235    2.2904 H   0  0  0  0  0  0  0  0  0  0  0  0
   -2.5194    0.6872    0.2065 C   0  0  0  0  0  0  0  0  0  0  0  0
   -2.1152    1.8081   -0.0335 H   0  0  0  0  0  0  0  0  0  0  0  0
   -3.5618    1.0006    0.5475 H   0  0  0  0  0  0  0  0  0  0  0  0
   -2.3403   -0.1141   -0.8600 O   0  0  0  0  0  0  0  0  0  0  0  0
  1  3  1  0  0  0  0
  1  2  1  0  0  0  0
  1  8  1  0  0  0  0
  4  1  1  0  0  0  0
  5  4  1  0  0  0  0
  6  4  1  0  0  0  0
  8 10  1  0  0  0  0
  9  8  1  0  0  0  0
 11 13  1  0  0  0  0
 11  8  1  0  0  0  0
 12 11  1  0  0  0  0
 14  4  1  0  0  0  0
 14 11  1  0  0  0  0
M  END
$$$$
Title Card Required
 OpenBabel06272217483D

 14 13  0  0  0  0  0  0  0  0999 V2000
   -1.1681   -1.3070    0.7434 C   0  0  0  0  0  0  0  0  0  0  0  0
   -0.1473   -1.4921    1.2138 H   0  0  0  0  0  0  0  0  0  0  0  0
   -1.9212   -2.1636    0.7596 H   0  0  0  0  0  0  0  0  0  0  0  0
   -1.3618   -0.9432   -0.6677 C   0  0  0  0  0  0  0  0  0  0  0  0
   -1.6613   -1.7476   -1.2767 H   0  0  0  0  0  0  0  0  0  0  0  0
   -0.5446   -0.4616   -1.1485 H   0  0  0  0  0  0  0  0  0  0  0  0
    1.6312    0.2792   -0.1038 Br  0  0  0  0  0 15  0  0  0  0  0  0
   -1.5135    0.1046    1.2554 C   0  0  0  0  0  0  0  0  0  0  0  0
   -0.5531    0.5534    1.2495 H   0  0  0  0  0  0  0  0  0  0  0  0
   -2.1096   -0.1871    2.2768 H   0  0  0  0  0  0  0  0  0  0  0  0
   -2.5163    0.6877    0.2014 C   0  0  0  0  0  0  0  0  0  0  0  0
   -2.1478    1.8009   -0.0819 H   0  0  0  0  0  0  0  0  0  0  0  0
   -3.5528    0.9607    0.6077 H   0  0  0  0  0  0  0  0  0  0  0  0
   -2.3308   -0.1116   -0.8643 O   0  0  0  0  0  0  0  0  0  0  0  0
  1  3  1  0  0  0  0
  1  2  1  0  0  0  0
  1  8  1  0  0  0  0
  4  1  1  0  0  0  0
  5  4  1  0  0  0  0
  6  4  1  0  0  0  0
  8 10  1  0  0  0  0
  9  8  1  0  0  0  0
 11 13  1  0  0  0  0
 11  8  1  0  0  0  0
 12 11  1  0  0  0  0
 14  4  1  0  0  0  0
 14 11  1  0  0  0  0
M  END
$$$$
Title Card Required
 OpenBabel06272217483D

 14 13  0  0  0  0  0  0  0  0999 V2000
   -1.1944   -1.2984    0.7505 C   0  0  0  0  0  0  0  0  0  0  0  0
   -0.1773   -1.4609    1.1811 H   0  0  0  0  0  0  0  0  0  0  0  0
   -1.9089   -2.2478    0.6817 H   0  0  0  0  0  0  0  0  0  0  0  0
   -1.3479   -0.9459   -0.6543 C   0  0  0  0  0  0  0  0  0  0  0  0
   -1.5938   -1.7943   -1.2781 H   0  0  0  0  0  0  0  0  0  0  0  0
   -0.5585   -0.4167   -1.1640 H   0  0  0  0  0  0  0  0  0  0  0  0
    1.6320    0.2793   -0.1069 Br  0  0  0  0  0 15  0  0  0  0  0  0
   -1.5112    0.1061    1.2741 C   0  0  0  0  0  0  0  0  0  0  0  0
   -0.5959    0.5051    1.2981 H   0  0  0  0  0  0  0  0  0  0  0  0
   -2.1543   -0.2314    2.2412 H   0  0  0  0  0  0  0  0  0  0  0  0
   -2.5113    0.6930    0.1981 C   0  0  0  0  0  0  0  0  0  0  0  0
   -2.1879    1.7694   -0.1256 H   0  0  0  0  0  0  0  0  0  0  0  0
   -3.5354    0.9011    0.6619 H   0  0  0  0  0  0  0  0  0  0  0  0
   -2.3264   -0.1065   -0.8696 O   0  0  0  0  0  0  0  0  0  0  0  0
  1  2  1  0  0  0  0
  1  8  1  0  0  0  0
  3  1  1  0  0  0  0
  4  1  1  0  0  0  0
  5  4  1  0  0  0  0
  6  4  1  0  0  0  0
  8  9  1  0  0  0  0
  8 10  1  0  0  0  0
 11 13  1  0  0  0  0
 11  8  1  0  0  0  0
 12 11  1  0  0  0  0
 14  4  1  0  0  0  0
 14 11  1  0  0  0  0
M  END
$$$$
Title Card Required
 OpenBabel06272217483D

 14 13  0  0  0  0  0  0  0  0999 V2000
   -1.2220   -1.2910    0.7577 C   0  0  0  0  0  0  0  0  0  0  0  0
   -0.2138   -1.4384    1.1336 H   0  0  0  0  0  0  0  0  0  0  0  0
   -1.8843   -2.3084    0.6297 H   0  0  0  0  0  0  0  0  0  0  0  0
   -1.3286   -0.9518   -0.6452 C   0  0  0  0  0  0  0  0  0  0  0  0
   -1.5216   -1.8563   -1.2857 H   0  0  0  0  0  0  0  0  0  0  0  0
   -0.5475   -0.3791   -1.1746 H   0  0  0  0  0  0  0  0  0  0  0  0
    1.6330    0.2795   -0.1100 Br  0  0  0  0  0 15  0  0  0  0  0  0
   -1.5176    0.1035    1.2959 C   0  0  0  0  0  0  0  0  0  0  0  0
   -0.5914    0.4886    1.3589 H   0  0  0  0  0  0  0  0  0  0  0  0
   -2.1751   -0.2494    2.1882 H   0  0  0  0  0  0  0  0  0  0  0  0
   -2.5043    0.7026    0.1974 C   0  0  0  0  0  0  0  0  0  0  0  0
   -2.2322    1.7209   -0.1603 H   0  0  0  0  0  0  0  0  0  0  0  0
   -3.5108    0.8252    0.7048 H   0  0  0  0  0  0  0  0  0  0  0  0
   -2.3275   -0.0995   -0.8758 O   0  0  0  0  0  0  0  0  0  0  0  0
  1  2  1  0  0  0  0
  1  8  1  0  0  0  0
  3  1  1  0  0  0  0
  4  1  1  0  0  0  0
  5  4  1  0  0  0  0
  6  4  1  0  0  0  0
  8  9  1  0  0  0  0
  8 10  1  0  0  0  0
 11 13  1  0  0  0  0
 11  8  1  0  0  0  0
 12 11  1  0  0  0  0
 14  4  1  0  0  0  0
 14 11  1  0  0  0  0
M  END
$$$$
Title Card Required
 OpenBabel06272217483D

 14 13  0  0  0  0  0  0  0  0999 V2000
   -1.2493   -1.2860    0.7639 C   0  0  0  0  0  0  0  0  0  0  0  0
   -0.2438   -1.4290    1.0812 H   0  0  0  0  0  0  0  0  0  0  0  0
   -1.8496   -2.3352    0.6098 H   0  0  0  0  0  0  0  0  0  0  0  0
   -1.3060   -0.9598   -0.6424 C   0  0  0  0  0  0  0  0  0  0  0  0
   -1.4488   -1.9130   -1.2907 H   0  0  0  0  0  0  0  0  0  0  0  0
   -0.5190   -0.3567   -1.1726 H   0  0  0  0  0  0  0  0  0  0  0  0
    1.6341    0.2796   -0.1130 Br  0  0  0  0  0 15  0  0  0  0  0  0
   -1.5320    0.0975    1.3183 C   0  0  0  0  0  0  0  0  0  0  0  0
   -0.5438    0.5016    1.4291 H   0  0  0  0  0  0  0  0  0  0  0  0
   -2.1770   -0.2414    2.1334 H   0  0  0  0  0  0  0  0  0  0  0  0
   -2.4961    0.7139    0.1993 C   0  0  0  0  0  0  0  0  0  0  0  0
   -2.2740    1.6756   -0.1848 H   0  0  0  0  0  0  0  0  0  0  0  0
   -3.4841    0.7422    0.7331 H   0  0  0  0  0  0  0  0  0  0  0  0
   -2.3331   -0.0922   -0.8826 O   0  0  0  0  0  0  0  0  0  0  0  0
  1  2  1  0  0  0  0
  1  8  1  0  0  0  0
  3  1  1  0  0  0  0
  4  1  1  0  0  0  0
  5  4  1  0  0  0  0
  6  4  1  0  0  0  0
  8  9  1  0  0  0  0
  8 10  1  0  0  0  0
 11 13  1  0  0  0  0
 11  8  1  0  0  0  0
 12 11  1  0  0  0  0
 14  4  1  0  0  0  0
 14 11  1  0  0  0  0
M  END
$$$$
Title Card Required
 OpenBabel06272217483D

 14 13  0  0  0  0  0  0  0  0999 V2000
   -1.2767   -1.2835    0.7686 C   0  0  0  0  0  0  0  0  0  0  0  0
   -0.2584   -1.4335    1.0294 H   0  0  0  0  0  0  0  0  0  0  0  0
   -1.8090   -2.3289    0.6217 H   0  0  0  0  0  0  0  0  0  0  0  0
   -1.2807   -0.9691   -0.6462 C   0  0  0  0  0  0  0  0  0  0  0  0
   -1.3758   -1.9535   -1.2879 H   0  0  0  0  0  0  0  0  0  0  0  0
   -0.4800   -0.3526   -1.1541 H   0  0  0  0  0  0  0  0  0  0  0  0
    1.6352    0.2799   -0.1159 Br  0  0  0  0  0 15  0  0  0  0  0  0
   -1.5501    0.0902    1.3403 C   0  0  0  0  0  0  0  0  0  0  0  0
   -0.4888    0.5264    1.5062 H   0  0  0  0  0  0  0  0  0  0  0  0
   -2.1755   -0.2143    2.0964 H   0  0  0  0  0  0  0  0  0  0  0  0
   -2.4873    0.7247    0.2043 C   0  0  0  0  0  0  0  0  0  0  0  0
   -2.3095    1.6551   -0.2038 H   0  0  0  0  0  0  0  0  0  0  0  0
   -3.4587    0.6563    0.7480 H   0  0  0  0  0  0  0  0  0  0  0  0
   -2.3419   -0.0852   -0.8900 O   0  0  0  0  0  0  0  0  0  0  0  0
  1  2  1  0  0  0  0
  1  8  1  0  0  0  0
  3  1  1  0  0  0  0
  4  1  1  0  0  0  0
  5  4  1  0  0  0  0
  6  4  1  0  0  0  0
  8  9  1  0  0  0  0
  8 10  1  0  0  0  0
 11 13  1  0  0  0  0
 11  8  1  0  0  0  0
 12 11  1  0  0  0  0
 14  4  1  0  0  0  0
 14 11  1  0  0  0  0
M  END
$$$$
Title Card Required
 OpenBabel06272217483D

 14 13  0  0  0  0  0  0  0  0999 V2000
   -1.3034   -1.2831    0.7716 C   0  0  0  0  0  0  0  0  0  0  0  0
   -0.2560   -1.4511    0.9816 H   0  0  0  0  0  0  0  0  0  0  0  0
   -1.7700   -2.2948    0.6644 H   0  0  0  0  0  0  0  0  0  0  0  0
   -1.2537   -0.9790   -0.6565 C   0  0  0  0  0  0  0  0  0  0  0  0
   -1.3048   -1.9720   -1.2759 H   0  0  0  0  0  0  0  0  0  0  0  0
   -0.4350   -0.3669   -1.1177 H   0  0  0  0  0  0  0  0  0  0  0  0
    1.6365    0.2801   -0.1189 Br  0  0  0  0  0 15  0  0  0  0  0  0
   -1.5676    0.0835    1.3603 C   0  0  0  0  0  0  0  0  0  0  0  0
   -0.4577    0.5482    1.5840 H   0  0  0  0  0  0  0  0  0  0  0  0
   -2.1913   -0.1769    2.1016 H   0  0  0  0  0  0  0  0  0  0  0  0
   -2.4780    0.7330    0.2123 C   0  0  0  0  0  0  0  0  0  0  0  0
   -2.3374    1.6744   -0.2201 H   0  0  0  0  0  0  0  0  0  0  0  0
   -3.4380    0.5727    0.7502 H   0  0  0  0  0  0  0  0  0  0  0  0
   -2.3529   -0.0793   -0.8982 O   0  0  0  0  0  0  0  0  0  0  0  0
  1  2  1  0  0  0  0
  1  8  1  0  0  0  0
  3  1  1  0  0  0  0
  4  1  1  0  0  0  0
  5  4  1  0  0  0  0
  6  4  1  0  0  0  0
  8  9  1  0  0  0  0
  8 10  1  0  0  0  0
 11 13  1  0  0  0  0
 11  8  1  0  0  0  0
 12 11  1  0  0  0  0
 14  4  1  0  0  0  0
 14 11  1  0  0  0  0
M  END
$$$$
Title Card Required
 OpenBabel06272217483D

 14 13  0  0  0  0  0  0  0  0999 V2000
   -1.3264   -1.2837    0.7729 C   0  0  0  0  0  0  0  0  0  0  0  0
   -0.2445   -1.4768    0.9411 H   0  0  0  0  0  0  0  0  0  0  0  0
   -1.7452   -2.2504    0.7311 H   0  0  0  0  0  0  0  0  0  0  0  0
   -1.2273   -0.9884   -0.6714 C   0  0  0  0  0  0  0  0  0  0  0  0
   -1.2418   -1.9691   -1.2576 H   0  0  0  0  0  0  0  0  0  0  0  0
   -0.3885   -0.3947   -1.0679 H   0  0  0  0  0  0  0  0  0  0  0  0
    1.6379    0.2804   -0.1217 Br  0  0  0  0  0 15  0  0  0  0  0  0
   -1.5815    0.0786    1.3769 C   0  0  0  0  0  0  0  0  0  0  0  0
   -0.4649    0.5585    1.6535 H   0  0  0  0  0  0  0  0  0  0  0  0
   -2.2325   -0.1359    2.1561 H   0  0  0  0  0  0  0  0  0  0  0  0
   -2.4689    0.7382    0.2222 C   0  0  0  0  0  0  0  0  0  0  0  0
   -2.3588    1.7249   -0.2292 H   0  0  0  0  0  0  0  0  0  0  0  0
   -3.4248    0.5004    0.7406 H   0  0  0  0  0  0  0  0  0  0  0  0
   -2.3643   -0.0750   -0.9067 O   0  0  0  0  0  0  0  0  0  0  0  0
  1  2  1  0  0  0  0
  1  8  1  0  0  0  0
  3  1  1  0  0  0  0
  4  1  1  0  0  0  0
  5  4  1  0  0  0  0
  6  4  1  0  0  0  0
  8  9  1  0  0  0  0
  8 10  1  0  0  0  0
 11 13  1  0  0  0  0
 11  8  1  0  0  0  0
 12 11  1  0  0  0  0
 14  4  1  0  0  0  0
 14 11  1  0  0  0  0
M  END
$$$$
Title Card Required
 OpenBabel06272217483D

 14 13  0  0  0  0  0  0  0  0999 V2000
   -1.3439   -1.2837    0.7728 C   0  0  0  0  0  0  0  0  0  0  0  0
   -0.2345   -1.5053    0.9087 H   0  0  0  0  0  0  0  0  0  0  0  0
   -1.7452   -2.2184    0.8150 H   0  0  0  0  0  0  0  0  0  0  0  0
   -1.2028   -0.9969   -0.6887 C   0  0  0  0  0  0  0  0  0  0  0  0
   -1.1885   -1.9528   -1.2386 H   0  0  0  0  0  0  0  0  0  0  0  0
   -0.3401   -0.4285   -1.0103 H   0  0  0  0  0  0  0  0  0  0  0  0
    1.6394    0.2808   -0.1243 Br  0  0  0  0  0 15  0  0  0  0  0  0
   -1.5922    0.0752    1.3916 C   0  0  0  0  0  0  0  0  0  0  0  0
   -0.5090    0.5560    1.7110 H   0  0  0  0  0  0  0  0  0  0  0  0
   -2.2856   -0.0900    2.2392 H   0  0  0  0  0  0  0  0  0  0  0  0
   -2.4602    0.7414    0.2327 C   0  0  0  0  0  0  0  0  0  0  0  0
   -2.3772    1.7846   -0.2236 H   0  0  0  0  0  0  0  0  0  0  0  0
   -3.4190    0.4431    0.7210 H   0  0  0  0  0  0  0  0  0  0  0  0
   -2.3753   -0.0722   -0.9154 O   0  0  0  0  0  0  0  0  0  0  0  0
  1  3  1  0  0  0  0
  1  2  1  0  0  0  0
  1  8  1  0  0  0  0
  4  1  1  0  0  0  0
  5  4  1  0  0  0  0
  6  4  1  0  0  0  0
  8  9  1  0  0  0  0
  8 10  1  0  0  0  0
 11 13  1  0  0  0  0
 11  8  1  0  0  0  0
 12 11  1  0  0  0  0
 14  4  1  0  0  0  0
 14 11  1  0  0  0  0
M  END
$$$$
Title Card Required
 OpenBabel06272217483D

 14 13  0  0  0  0  0  0  0  0999 V2000
   -1.3556   -1.2818    0.7712 C   0  0  0  0  0  0  0  0  0  0  0  0
   -0.2331   -1.5333    0.8850 H   0  0  0  0  0  0  0  0  0  0  0  0
   -1.7760   -2.2131    0.9141 H   0  0  0  0  0  0  0  0  0  0  0  0
   -1.1808   -1.0041   -0.7069 C   0  0  0  0  0  0  0  0  0  0  0  0
   -1.1451   -1.9341   -1.2260 H   0  0  0  0  0  0  0  0  0  0  0  0
   -0.2869   -0.4616   -0.9488 H   0  0  0  0  0  0  0  0  0  0  0  0
    1.6410    0.2812   -0.1269 Br  0  0  0  0  0 15  0  0  0  0  0  0
   -1.6016    0.0726    1.4068 C   0  0  0  0  0  0  0  0  0  0  0  0
   -0.5849    0.5421    1.7564 H   0  0  0  0  0  0  0  0  0  0  0  0
   -2.3333   -0.0369    2.3256 H   0  0  0  0  0  0  0  0  0  0  0  0
   -2.4521    0.7435    0.2431 C   0  0  0  0  0  0  0  0  0  0  0  0
   -2.3945    1.8363   -0.1979 H   0  0  0  0  0  0  0  0  0  0  0  0
   -3.4193    0.4025    0.6925 H   0  0  0  0  0  0  0  0  0  0  0  0
   -2.3854   -0.0706   -0.9245 O   0  0  0  0  0  0  0  0  0  0  0  0
  1  2  1  0  0  0  0
  1  3  1  0  0  0  0
  1  8  1  0  0  0  0
  4  1  1  0  0  0  0
  5  4  1  0  0  0  0
  6  4  1  0  0  0  0
  8  9  1  0  0  0  0
  8 10  1  0  0  0  0
 11 13  1  0  0  0  0
 11  8  1  0  0  0  0
 12 11  1  0  0  0  0
 14  4  1  0  0  0  0
 14 11  1  0  0  0  0
M  END
$$$$
Title Card Required
 OpenBabel06272217483D

 14 13  0  0  0  0  0  0  0  0999 V2000
   -1.3613   -1.2788    0.7684 C   0  0  0  0  0  0  0  0  0  0  0  0
   -0.2441   -1.5586    0.8717 H   0  0  0  0  0  0  0  0  0  0  0  0
   -1.8335   -2.2275    1.0250 H   0  0  0  0  0  0  0  0  0  0  0  0
   -1.1620   -1.0094   -0.7243 C   0  0  0  0  0  0  0  0  0  0  0  0
   -1.1120   -1.9255   -1.2279 H   0  0  0  0  0  0  0  0  0  0  0  0
   -0.2283   -0.4894   -0.8864 H   0  0  0  0  0  0  0  0  0  0  0  0
    1.6427    0.2817   -0.1295 Br  0  0  0  0  0 15  0  0  0  0  0  0
   -1.6113    0.0706    1.4236 C   0  0  0  0  0  0  0  0  0  0  0  0
   -0.6817    0.5208    1.7908 H   0  0  0  0  0  0  0  0  0  0  0  0
   -2.3637    0.0212    2.3969 H   0  0  0  0  0  0  0  0  0  0  0  0
   -2.4449    0.7451    0.2529 C   0  0  0  0  0  0  0  0  0  0  0  0
   -2.4106    1.8691   -0.1501 H   0  0  0  0  0  0  0  0  0  0  0  0
   -3.4245    0.3805    0.6565 H   0  0  0  0  0  0  0  0  0  0  0  0
   -2.3940   -0.0701   -0.9339 O   0  0  0  0  0  0  0  0  0  0  0  0
  1  2  1  0  0  0  0
  1  3  1  0  0  0  0
  1  8  1  0  0  0  0
  4  1  1  0  0  0  0
  5  4  1  0  0  0  0
  6  4  1  0  0  0  0
  8  9  1  0  0  0  0
  8 10  1  0  0  0  0
 11 13  1  0  0  0  0
 11  8  1  0  0  0  0
 12 11  1  0  0  0  0
 14  4  1  0  0  0  0
 14 11  1  0  0  0  0
M  END
$$$$
Title Card Required
 OpenBabel06272217483D

 14 13  0  0  0  0  0  0  0  0999 V2000
   -1.3624   -1.2767    0.7650 C   0  0  0  0  0  0  0  0  0  0  0  0
   -0.2688   -1.5804    0.8714 H   0  0  0  0  0  0  0  0  0  0  0  0
   -1.9071   -2.2394    1.1413 H   0  0  0  0  0  0  0  0  0  0  0  0
   -1.1464   -1.0120   -0.7402 C   0  0  0  0  0  0  0  0  0  0  0  0
   -1.0890   -1.9354   -1.2503 H   0  0  0  0  0  0  0  0  0  0  0  0
   -0.1668   -0.5105   -0.8239 H   0  0  0  0  0  0  0  0  0  0  0  0
    1.6447    0.2822   -0.1321 Br  0  0  0  0  0 15  0  0  0  0  0  0
   -1.6239    0.0686    1.4425 C   0  0  0  0  0  0  0  0  0  0  0  0
   -0.7791    0.5019    1.8201 H   0  0  0  0  0  0  0  0  0  0  0  0
   -2.3722    0.0812    2.4430 H   0  0  0  0  0  0  0  0  0  0  0  0
   -2.4390    0.7462    0.2621 C   0  0  0  0  0  0  0  0  0  0  0  0
   -2.4246    1.8771   -0.0791 H   0  0  0  0  0  0  0  0  0  0  0  0
   -3.4337    0.3787    0.6140 H   0  0  0  0  0  0  0  0  0  0  0  0
   -2.4008   -0.0706   -0.9439 O   0  0  0  0  0  0  0  0  0  0  0  0
  1  2  1  0  0  0  0
  1  3  1  0  0  0  0
  1  8  1  0  0  0  0
  4  1  1  0  0  0  0
  5  4  1  0  0  0  0
  6  4  1  0  0  0  0
  8  9  1  0  0  0  0
  8 10  1  0  0  0  0
 11 13  1  0  0  0  0
 11  8  1  0  0  0  0
 12 11  1  0  0  0  0
 14  4  1  0  0  0  0
 14 11  1  0  0  0  0
M  END
$$$$
Title Card Required
 OpenBabel06272217483D

 14 13  0  0  0  0  0  0  0  0999 V2000
   -1.3598   -1.2775    0.7620 C   0  0  0  0  0  0  0  0  0  0  0  0
   -0.3055   -1.5996    0.8885 H   0  0  0  0  0  0  0  0  0  0  0  0
   -1.9848   -2.2263    1.2521 H   0  0  0  0  0  0  0  0  0  0  0  0
   -1.1341   -1.0119   -0.7543 C   0  0  0  0  0  0  0  0  0  0  0  0
   -1.0770   -1.9618   -1.2944 H   0  0  0  0  0  0  0  0  0  0  0  0
   -0.1096   -0.5259   -0.7625 H   0  0  0  0  0  0  0  0  0  0  0  0
    1.6470    0.2828   -0.1349 Br  0  0  0  0  0 15  0  0  0  0  0  0
   -1.6427    0.0655    1.4631 C   0  0  0  0  0  0  0  0  0  0  0  0
   -0.8428    0.5030    1.8562 H   0  0  0  0  0  0  0  0  0  0  0  0
   -2.3572    0.1385    2.4563 H   0  0  0  0  0  0  0  0  0  0  0  0
   -2.4347    0.7465    0.2710 C   0  0  0  0  0  0  0  0  0  0  0  0
   -2.4345    1.8578    0.0147 H   0  0  0  0  0  0  0  0  0  0  0  0
   -3.4472    0.3998    0.5667 H   0  0  0  0  0  0  0  0  0  0  0  0
   -2.4050   -0.0719   -0.9547 O   0  0  0  0  0  0  0  0  0  0  0  0
  1  2  1  0  0  0  0
  1  3  1  0  0  0  0
  1  8  1  0  0  0  0
  4  1  1  0  0  0  0
  5  4  1  0  0  0  0
  6  4  1  0  0  0  0
  8  9  1  0  0  0  0
  8 10  1  0  0  0  0
 11 13  1  0  0  0  0
 11  8  1  0  0  0  0
 12 11  1  0  0  0  0
 14  4  1  0  0  0  0
 14 11  1  0  0  0  0
M  END
$$$$
Title Card Required
 OpenBabel06272217483D

 14 13  0  0  0  0  0  0  0  0999 V2000
   -1.3556   -1.2824    0.7609 C   0  0  0  0  0  0  0  0  0  0  0  0
   -0.3440   -1.6178    0.9267 H   0  0  0  0  0  0  0  0  0  0  0  0
   -2.0508   -2.1764    1.3367 H   0  0  0  0  0  0  0  0  0  0  0  0
   -1.1258   -1.0099   -0.7659 C   0  0  0  0  0  0  0  0  0  0  0  0
   -1.0781   -1.9876   -1.3502 H   0  0  0  0  0  0  0  0  0  0  0  0
   -0.0701   -0.5368   -0.7095 H   0  0  0  0  0  0  0  0  0  0  0  0
    1.6496    0.2836   -0.1377 Br  0  0  0  0  0 15  0  0  0  0  0  0
   -1.6687    0.0609    1.4831 C   0  0  0  0  0  0  0  0  0  0  0  0
   -0.8444    0.5373    1.9039 H   0  0  0  0  0  0  0  0  0  0  0  0
   -2.3238    0.1828    2.4339 H   0  0  0  0  0  0  0  0  0  0  0  0
   -2.4329    0.7449    0.2792 C   0  0  0  0  0  0  0  0  0  0  0  0
   -2.4361    1.8201    0.1204 H   0  0  0  0  0  0  0  0  0  0  0  0
   -3.4656    0.4426    0.5204 H   0  0  0  0  0  0  0  0  0  0  0  0
   -2.4058   -0.0738   -0.9654 O   0  0  0  0  0  0  0  0  0  0  0  0
  1  2  1  0  0  0  0
  1  3  1  0  0  0  0
  1  8  1  0  0  0  0
  4  6  1  0  0  0  0
  4  1  1  0  0  0  0
  5  4  1  0  0  0  0
  8  9  1  0  0  0  0
  8 10  1  0  0  0  0
 11 13  1  0  0  0  0
 11  8  1  0  0  0  0
 12 11  1  0  0  0  0
 14  4  1  0  0  0  0
 14 11  1  0  0  0  0
M  END
$$$$
Title Card Required
 OpenBabel06272217483D

 14 13  0  0  0  0  0  0  0  0999 V2000
   -1.3517   -1.2909    0.7628 C   0  0  0  0  0  0  0  0  0  0  0  0
   -0.3706   -1.6389    0.9874 H   0  0  0  0  0  0  0  0  0  0  0  0
   -2.0965   -2.0914    1.3823 H   0  0  0  0  0  0  0  0  0  0  0  0
   -1.1218   -1.0072   -0.7748 C   0  0  0  0  0  0  0  0  0  0  0  0
   -1.0924   -1.9931   -1.4047 H   0  0  0  0  0  0  0  0  0  0  0  0
   -0.0570   -0.5443   -0.6711 H   0  0  0  0  0  0  0  0  0  0  0  0
    1.6525    0.2844   -0.1405 Br  0  0  0  0  0 15  0  0  0  0  0  0
   -1.6981    0.0562    1.5013 C   0  0  0  0  0  0  0  0  0  0  0  0
   -0.8049    0.5916    1.9473 H   0  0  0  0  0  0  0  0  0  0  0  0
   -2.2878    0.2068    2.3884 H   0  0  0  0  0  0  0  0  0  0  0  0
   -2.4340    0.7397    0.2870 C   0  0  0  0  0  0  0  0  0  0  0  0
   -2.4255    1.7874    0.2248 H   0  0  0  0  0  0  0  0  0  0  0  0
   -3.4900    0.5022    0.4800 H   0  0  0  0  0  0  0  0  0  0  0  0
   -2.4024   -0.0761   -0.9757 O   0  0  0  0  0  0  0  0  0  0  0  0
  1  2  1  0  0  0  0
  1  3  1  0  0  0  0
  1  8  1  0  0  0  0
  4  6  1  0  0  0  0
  4  1  1  0  0  0  0
  5  4  1  0  0  0  0
  8  9  1  0  0  0  0
  8 10  1  0  0  0  0
 11 13  1  0  0  0  0
 11  8  1  0  0  0  0
 12 11  1  0  0  0  0
 14  4  1  0  0  0  0
 14 11  1  0  0  0  0
M  END
$$$$
Title Card Required
 OpenBabel06272217483D

 14 13  0  0  0  0  0  0  0  0999 V2000
   -1.3496   -1.3024    0.7687 C   0  0  0  0  0  0  0  0  0  0  0  0
   -0.3784   -1.6661    1.0718 H   0  0  0  0  0  0  0  0  0  0  0  0
   -2.1200   -1.9787    1.3817 H   0  0  0  0  0  0  0  0  0  0  0  0
   -1.1224   -1.0048   -0.7810 C   0  0  0  0  0  0  0  0  0  0  0  0
   -1.1197   -1.9657   -1.4493 H   0  0  0  0  0  0  0  0  0  0  0  0
   -0.0732   -0.5483   -0.6522 H   0  0  0  0  0  0  0  0  0  0  0  0
    1.6559    0.2854   -0.1433 Br  0  0  0  0  0 15  0  0  0  0  0  0
   -1.7258    0.0531    1.5164 C   0  0  0  0  0  0  0  0  0  0  0  0
   -0.7630    0.6438    1.9652 H   0  0  0  0  0  0  0  0  0  0  0  0
   -2.2754    0.2086    2.3510 H   0  0  0  0  0  0  0  0  0  0  0  0
   -2.4385    0.7288    0.2948 C   0  0  0  0  0  0  0  0  0  0  0  0
   -2.3971    1.7847    0.3200 H   0  0  0  0  0  0  0  0  0  0  0  0
   -3.5218    0.5744    0.4479 H   0  0  0  0  0  0  0  0  0  0  0  0
   -2.3943   -0.0783   -0.9852 O   0  0  0  0  0  0  0  0  0  0  0  0
  1  2  1  0  0  0  0
  1  3  1  0  0  0  0
  1  8  1  0  0  0  0
  4  6  1  0  0  0  0
  4  1  1  0  0  0  0
  5  4  1  0  0  0  0
  8  9  1  0  0  0  0
  8 10  1  0  0  0  0
 11 12  1  0  0  0  0
 11 13  1  0  0  0  0
 11  8  1  0  0  0  0
 14  4  1  0  0  0  0
 14 11  1  0  0  0  0
M  END
$$$$
Title Card Required
 OpenBabel06272217483D

 14 13  0  0  0  0  0  0  0  0999 V2000
   -1.3489   -1.3151    0.7785 C   0  0  0  0  0  0  0  0  0  0  0  0
   -0.3753   -1.6946    1.1668 H   0  0  0  0  0  0  0  0  0  0  0  0
   -2.1268   -1.8642    1.3368 H   0  0  0  0  0  0  0  0  0  0  0  0
   -1.1280   -1.0030   -0.7838 C   0  0  0  0  0  0  0  0  0  0  0  0
   -1.1560   -1.9068   -1.4771 H   0  0  0  0  0  0  0  0  0  0  0  0
   -0.1130   -0.5465   -0.6568 H   0  0  0  0  0  0  0  0  0  0  0  0
    1.6594    0.2865   -0.1460 Br  0  0  0  0  0 15  0  0  0  0  0  0
   -1.7453    0.0524    1.5244 C   0  0  0  0  0  0  0  0  0  0  0  0
   -0.7479    0.6751    1.9468 H   0  0  0  0  0  0  0  0  0  0  0  0
   -2.3120    0.1910    2.3619 H   0  0  0  0  0  0  0  0  0  0  0  0
   -2.4465    0.7139    0.3020 C   0  0  0  0  0  0  0  0  0  0  0  0
   -2.3499    1.8105    0.3933 H   0  0  0  0  0  0  0  0  0  0  0  0
   -3.5556    0.6484    0.4265 H   0  0  0  0  0  0  0  0  0  0  0  0
   -2.3819   -0.0802   -0.9925 O   0  0  0  0  0  0  0  0  0  0  0  0
  1  2  1  0  0  0  0
  1  3  1  0  0  0  0
  1  8  1  0  0  0  0
  4  6  1  0  0  0  0
  4  1  1  0  0  0  0
  5  4  1  0  0  0  0
  8  9  1  0  0  0  0
  8 10  1  0  0  0  0
 11 12  1  0  0  0  0
 11 13  1  0  0  0  0
 11  8  1  0  0  0  0
 14  4  1  0  0  0  0
 14 11  1  0  0  0  0
M  END
$$$$
Title Card Required
 OpenBabel06272217483D

 14 13  0  0  0  0  0  0  0  0999 V2000
   -1.3471   -1.3265    0.7904 C   0  0  0  0  0  0  0  0  0  0  0  0
   -0.3776   -1.7173    1.2550 H   0  0  0  0  0  0  0  0  0  0  0  0
   -2.1392   -1.7787    1.2694 H   0  0  0  0  0  0  0  0  0  0  0  0
   -1.1382   -1.0015   -0.7827 C   0  0  0  0  0  0  0  0  0  0  0  0
   -1.1959   -1.8340   -1.4918 H   0  0  0  0  0  0  0  0  0  0  0  0
   -0.1608   -0.5367   -0.6813 H   0  0  0  0  0  0  0  0  0  0  0  0
    1.6629    0.2876   -0.1484 Br  0  0  0  0  0 15  0  0  0  0  0  0
   -1.7563    0.0540    1.5261 C   0  0  0  0  0  0  0  0  0  0  0  0
   -0.7666    0.6816    1.8988 H   0  0  0  0  0  0  0  0  0  0  0  0
   -2.3837    0.1577    2.4110 H   0  0  0  0  0  0  0  0  0  0  0  0
   -2.4574    0.6986    0.3081 C   0  0  0  0  0  0  0  0  0  0  0  0
   -2.2903    1.8365    0.4394 H   0  0  0  0  0  0  0  0  0  0  0  0
   -3.5831    0.7158    0.4141 H   0  0  0  0  0  0  0  0  0  0  0  0
   -2.3664   -0.0814   -0.9972 O   0  0  0  0  0  0  0  0  0  0  0  0
  1  2  1  0  0  0  0
  1  3  1  0  0  0  0
  1  8  1  0  0  0  0
  4  6  1  0  0  0  0
  4  1  1  0  0  0  0
  5  4  1  0  0  0  0
  8  9  1  0  0  0  0
  8 10  1  0  0  0  0
 11 13  1  0  0  0  0
 11 12  1  0  0  0  0
 11  8  1  0  0  0  0
 14  4  1  0  0  0  0
 14 11  1  0  0  0  0
M  END
$$$$
Title Card Required
 OpenBabel06272217483D

 14 13  0  0  0  0  0  0  0  0999 V2000
   -1.3418   -1.3355    0.8032 C   0  0  0  0  0  0  0  0  0  0  0  0
   -0.3946   -1.7329    1.3300 H   0  0  0  0  0  0  0  0  0  0  0  0
   -2.1839   -1.7382    1.1991 H   0  0  0  0  0  0  0  0  0  0  0  0
   -1.1529   -0.9993   -0.7777 C   0  0  0  0  0  0  0  0  0  0  0  0
   -1.2378   -1.7649   -1.5044 H   0  0  0  0  0  0  0  0  0  0  0  0
   -0.2043   -0.5163   -0.7213 H   0  0  0  0  0  0  0  0  0  0  0  0
    1.6665    0.2888   -0.1507 Br  0  0  0  0  0 15  0  0  0  0  0  0
   -1.7619    0.0575    1.5248 C   0  0  0  0  0  0  0  0  0  0  0  0
   -0.8146    0.6678    1.8305 H   0  0  0  0  0  0  0  0  0  0  0  0
   -2.4616    0.1090    2.4625 H   0  0  0  0  0  0  0  0  0  0  0  0
   -2.4710    0.6852    0.3133 C   0  0  0  0  0  0  0  0  0  0  0  0
   -2.2235    1.8433    0.4596 H   0  0  0  0  0  0  0  0  0  0  0  0
   -3.5998    0.7755    0.4073 H   0  0  0  0  0  0  0  0  0  0  0  0
   -2.3485   -0.0819   -0.9990 O   0  0  0  0  0  0  0  0  0  0  0  0
  1  3  1  0  0  0  0
  1  2  1  0  0  0  0
  1  8  1  0  0  0  0
  4  6  1  0  0  0  0
  4  1  1  0  0  0  0
  5  4  1  0  0  0  0
  8  9  1  0  0  0  0
  8 10  1  0  0  0  0
 11 13  1  0  0  0  0
 11 12  1  0  0  0  0
 11  8  1  0  0  0  0
 14  4  1  0  0  0  0
 14 11  1  0  0  0  0
M  END
$$$$
Title Card Required
 OpenBabel06272217483D

 14 13  0  0  0  0  0  0  0  0999 V2000
   -1.3331   -1.3418    0.8160 C   0  0  0  0  0  0  0  0  0  0  0  0
   -0.4272   -1.7425    1.3874 H   0  0  0  0  0  0  0  0  0  0  0  0
   -2.2629   -1.7422    1.1328 H   0  0  0  0  0  0  0  0  0  0  0  0
   -1.1711   -0.9957   -0.7686 C   0  0  0  0  0  0  0  0  0  0  0  0
   -1.2799   -1.7155   -1.5243 H   0  0  0  0  0  0  0  0  0  0  0  0
   -0.2351   -0.4858   -0.7714 H   0  0  0  0  0  0  0  0  0  0  0  0
    1.6701    0.2899   -0.1527 Br  0  0  0  0  0 15  0  0  0  0  0  0
   -1.7654    0.0616    1.5227 C   0  0  0  0  0  0  0  0  0  0  0  0
   -0.8782    0.6428    1.7550 H   0  0  0  0  0  0  0  0  0  0  0  0
   -2.5225    0.0499    2.4916 H   0  0  0  0  0  0  0  0  0  0  0  0
   -2.4861    0.6749    0.3173 C   0  0  0  0  0  0  0  0  0  0  0  0
   -2.1571    1.8243    0.4554 H   0  0  0  0  0  0  0  0  0  0  0  0
   -3.6045    0.8246    0.4042 H   0  0  0  0  0  0  0  0  0  0  0  0
   -2.3294   -0.0817   -0.9982 O   0  0  0  0  0  0  0  0  0  0  0  0
  1  3  1  0  0  0  0
  1  2  1  0  0  0  0
  1  8  1  0  0  0  0
  4  1  1  0  0  0  0
  5  4  1  0  0  0  0
  6  4  1  0  0  0  0
  8  9  1  0  0  0  0
  8 10  1  0  0  0  0
 11 13  1  0  0  0  0
 11 12  1  0  0  0  0
 11  8  1  0  0  0  0
 14  4  1  0  0  0  0
 14 11  1  0  0  0  0
M  END
$$$$
Title Card Required
 OpenBabel06272217483D

 14 13  0  0  0  0  0  0  0  0999 V2000
   -1.3237   -1.3462    0.8291 C   0  0  0  0  0  0  0  0  0  0  0  0
   -0.4713   -1.7495    1.4288 H   0  0  0  0  0  0  0  0  0  0  0  0
   -2.3516   -1.7742    1.0637 H   0  0  0  0  0  0  0  0  0  0  0  0
   -1.1918   -0.9904   -0.7561 C   0  0  0  0  0  0  0  0  0  0  0  0
   -1.3217   -1.6893   -1.5529 H   0  0  0  0  0  0  0  0  0  0  0  0
   -0.2548   -0.4490   -0.8284 H   0  0  0  0  0  0  0  0  0  0  0  0
    1.6736    0.2911   -0.1547 Br  0  0  0  0  0 15  0  0  0  0  0  0
   -1.7697    0.0643    1.5200 C   0  0  0  0  0  0  0  0  0  0  0  0
   -0.9355    0.6217    1.6837 H   0  0  0  0  0  0  0  0  0  0  0  0
   -2.5575   -0.0139    2.4917 H   0  0  0  0  0  0  0  0  0  0  0  0
   -2.5020    0.6676    0.3200 C   0  0  0  0  0  0  0  0  0  0  0  0
   -2.0949    1.7809    0.4299 H   0  0  0  0  0  0  0  0  0  0  0  0
   -3.5997    0.8634    0.4034 H   0  0  0  0  0  0  0  0  0  0  0  0
   -2.3097   -0.0807   -0.9946 O   0  0  0  0  0  0  0  0  0  0  0  0
  1  3  1  0  0  0  0
  1  2  1  0  0  0  0
  1  8  1  0  0  0  0
  4  1  1  0  0  0  0
  5  4  1  0  0  0  0
  6  4  1  0  0  0  0
  8  9  1  0  0  0  0
  8 10  1  0  0  0  0
 11 13  1  0  0  0  0
 11 12  1  0  0  0  0
 11  8  1  0  0  0  0
 14  4  1  0  0  0  0
 14 11  1  0  0  0  0
M  END
$$$$
Title Card Required
 OpenBabel06272217483D

 14 13  0  0  0  0  0  0  0  0999 V2000
   -1.3164   -1.3494    0.8429 C   0  0  0  0  0  0  0  0  0  0  0  0
   -0.5208   -1.7584    1.4588 H   0  0  0  0  0  0  0  0  0  0  0  0
   -2.4253   -1.8200    0.9861 H   0  0  0  0  0  0  0  0  0  0  0  0
   -1.2142   -0.9833   -0.7407 C   0  0  0  0  0  0  0  0  0  0  0  0
   -1.3625   -1.6813   -1.5835 H   0  0  0  0  0  0  0  0  0  0  0  0
   -0.2707   -0.4119   -0.8902 H   0  0  0  0  0  0  0  0  0  0  0  0
    1.6774    0.2924   -0.1566 Br  0  0  0  0  0 15  0  0  0  0  0  0
   -1.7777    0.0634    1.5164 C   0  0  0  0  0  0  0  0  0  0  0  0
   -0.9614    0.6220    1.6243 H   0  0  0  0  0  0  0  0  0  0  0  0
   -2.5635   -0.0790    2.4626 H   0  0  0  0  0  0  0  0  0  0  0  0
   -2.5181    0.6630    0.3213 C   0  0  0  0  0  0  0  0  0  0  0  0
   -2.0382    1.7161    0.3847 H   0  0  0  0  0  0  0  0  0  0  0  0
   -3.5899    0.8936    0.4041 H   0  0  0  0  0  0  0  0  0  0  0  0
   -2.2894   -0.0787   -0.9881 O   0  0  0  0  0  0  0  0  0  0  0  0
  1  3  1  0  0  0  0
  1  2  1  0  0  0  0
  1  8  1  0  0  0  0
  4  1  1  0  0  0  0
  5  4  1  0  0  0  0
  6  4  1  0  0  0  0
  8  9  1  0  0  0  0
  8 10  1  0  0  0  0
 11 12  1  0  0  0  0
 11 13  1  0  0  0  0
 11  8  1  0  0  0  0
 14  4  1  0  0  0  0
 14 11  1  0  0  0  0
M  END
$$$$
Title Card Required
 OpenBabel06272217483D

 14 13  0  0  0  0  0  0  0  0999 V2000
   -1.3138   -1.3515    0.8563 C   0  0  0  0  0  0  0  0  0  0  0  0
   -0.5655   -1.7743    1.4825 H   0  0  0  0  0  0  0  0  0  0  0  0
   -2.4656   -1.8689    0.9037 H   0  0  0  0  0  0  0  0  0  0  0  0
   -1.2362   -0.9752   -0.7243 C   0  0  0  0  0  0  0  0  0  0  0  0
   -1.3996   -1.6844   -1.6041 H   0  0  0  0  0  0  0  0  0  0  0  0
   -0.2897   -0.3831   -0.9508 H   0  0  0  0  0  0  0  0  0  0  0  0
    1.6812    0.2937   -0.1584 Br  0  0  0  0  0 15  0  0  0  0  0  0
   -1.7905    0.0578    1.5117 C   0  0  0  0  0  0  0  0  0  0  0  0
   -0.9444    0.6508    1.5824 H   0  0  0  0  0  0  0  0  0  0  0  0
   -2.5399   -0.1399    2.4078 H   0  0  0  0  0  0  0  0  0  0  0  0
   -2.5334    0.6606    0.3209 C   0  0  0  0  0  0  0  0  0  0  0  0
   -1.9893    1.6381    0.3227 H   0  0  0  0  0  0  0  0  0  0  0  0
   -3.5820    0.9160    0.4056 H   0  0  0  0  0  0  0  0  0  0  0  0
   -2.2698   -0.0757   -0.9788 O   0  0  0  0  0  0  0  0  0  0  0  0
  1  3  1  0  0  0  0
  1  2  1  0  0  0  0
  1  8  1  0  0  0  0
  4  1  1  0  0  0  0
  5  4  1  0  0  0  0
  6  4  1  0  0  0  0
  8  9  1  0  0  0  0
  8 10  1  0  0  0  0
 11 12  1  0  0  0  0
 11 13  1  0  0  0  0
 11  8  1  0  0  0  0
 14  4  1  0  0  0  0
 14 11  1  0  0  0  0
M  END
$$$$
Title Card Required
 OpenBabel06272217483D

 14 13  0  0  0  0  0  0  0  0999 V2000
   -1.3173   -1.3522    0.8680 C   0  0  0  0  0  0  0  0  0  0  0  0
   -0.5978   -1.8011    1.5049 H   0  0  0  0  0  0  0  0  0  0  0  0
   -2.4660   -1.9147    0.8228 H   0  0  0  0  0  0  0  0  0  0  0  0
   -1.2565   -0.9666   -0.7084 C   0  0  0  0  0  0  0  0  0  0  0  0
   -1.4306   -1.6926   -1.6048 H   0  0  0  0  0  0  0  0  0  0  0  0
   -0.3162   -0.3697   -1.0044 H   0  0  0  0  0  0  0  0  0  0  0  0
    1.6851    0.2950   -0.1602 Br  0  0  0  0  0 15  0  0  0  0  0  0
   -1.8062    0.0481    1.5057 C   0  0  0  0  0  0  0  0  0  0  0  0
   -0.9027    0.6943    1.5573 H   0  0  0  0  0  0  0  0  0  0  0  0
   -2.4928   -0.1935    2.3375 H   0  0  0  0  0  0  0  0  0  0  0  0
   -2.5470    0.6595    0.3184 C   0  0  0  0  0  0  0  0  0  0  0  0
   -1.9480    1.5591    0.2477 H   0  0  0  0  0  0  0  0  0  0  0  0
   -3.5823    0.9326    0.4074 H   0  0  0  0  0  0  0  0  0  0  0  0
   -2.2519   -0.0713   -0.9666 O   0  0  0  0  0  0  0  0  0  0  0  0
  1  2  1  0  0  0  0
  1  8  1  0  0  0  0
  3  1  1  0  0  0  0
  4  1  1  0  0  0  0
  5  4  1  0  0  0  0
  6  4  1  0  0  0  0
  8  9  1  0  0  0  0
  8 10  1  0  0  0  0
 11 13  1  0  0  0  0
 11  8  1  0  0  0  0
 12 11  1  0  0  0  0
 14  4  1  0  0  0  0
 14 11  1  0  0  0  0
M  END
$$$$
Title Card Required
 OpenBabel06272217483D

 14 13  0  0  0  0  0  0  0  0999 V2000
   -1.3276   -1.3518    0.8775 C   0  0  0  0  0  0  0  0  0  0  0  0
   -0.6166   -1.8405    1.5270 H   0  0  0  0  0  0  0  0  0  0  0  0
   -2.4247   -1.9544    0.7473 H   0  0  0  0  0  0  0  0  0  0  0  0
   -1.2741   -0.9581   -0.6934 C   0  0  0  0  0  0  0  0  0  0  0  0
   -1.4554   -1.7033   -1.5789 H   0  0  0  0  0  0  0  0  0  0  0  0
   -0.3517   -0.3760   -1.0470 H   0  0  0  0  0  0  0  0  0  0  0  0
    1.6893    0.2965   -0.1620 Br  0  0  0  0  0 15  0  0  0  0  0  0
   -1.8220    0.0357    1.4970 C   0  0  0  0  0  0  0  0  0  0  0  0
   -0.8626    0.7325    1.5479 H   0  0  0  0  0  0  0  0  0  0  0  0
   -2.4357   -0.2423    2.2696 H   0  0  0  0  0  0  0  0  0  0  0  0
   -2.5589    0.6586    0.3136 C   0  0  0  0  0  0  0  0  0  0  0  0
   -1.9108    1.4906    0.1612 H   0  0  0  0  0  0  0  0  0  0  0  0
   -3.5945    0.9458    0.4089 H   0  0  0  0  0  0  0  0  0  0  0  0
   -2.2362   -0.0652   -0.9515 O   0  0  0  0  0  0  0  0  0  0  0  0
  1  8  1  0  0  0  0
  1  2  1  0  0  0  0
  3  1  1  0  0  0  0
  4  1  1  0  0  0  0
  5  4  1  0  0  0  0
  6  4  1  0  0  0  0
  8  9  1  0  0  0  0
  8 10  1  0  0  0  0
 11 13  1  0  0  0  0
 11  8  1  0  0  0  0
 12 11  1  0  0  0  0
 14  4  1  0  0  0  0
 14 11  1  0  0  0  0
M  END
$$$$
Title Card Required
 OpenBabel06272217483D

 14 13  0  0  0  0  0  0  0  0999 V2000
   -1.3448   -1.3503    0.8843 C   0  0  0  0  0  0  0  0  0  0  0  0
   -0.6262   -1.8889    1.5431 H   0  0  0  0  0  0  0  0  0  0  0  0
   -2.3409   -1.9858    0.6833 H   0  0  0  0  0  0  0  0  0  0  0  0
   -1.2881   -0.9506   -0.6797 C   0  0  0  0  0  0  0  0  0  0  0  0
   -1.4741   -1.7168   -1.5213 H   0  0  0  0  0  0  0  0  0  0  0  0
   -0.3929   -0.4056   -1.0745 H   0  0  0  0  0  0  0  0  0  0  0  0
    1.6939    0.2981   -0.1639 Br  0  0  0  0  0 15  0  0  0  0  0  0
   -1.8343    0.0222    1.4830 C   0  0  0  0  0  0  0  0  0  0  0  0
   -0.8449    0.7482    1.5548 H   0  0  0  0  0  0  0  0  0  0  0  0
   -2.3935   -0.2938    2.2377 H   0  0  0  0  0  0  0  0  0  0  0  0
   -2.5690    0.6576    0.3061 C   0  0  0  0  0  0  0  0  0  0  0  0
   -1.8765    1.4442    0.0660 H   0  0  0  0  0  0  0  0  0  0  0  0
   -3.6177    0.9565    0.4088 H   0  0  0  0  0  0  0  0  0  0  0  0
   -2.2242   -0.0568   -0.9329 O   0  0  0  0  0  0  0  0  0  0  0  0
  1  8  1  0  0  0  0
  1  2  1  0  0  0  0
  3  1  1  0  0  0  0
  4  1  1  0  0  0  0
  5  4  1  0  0  0  0
  6  4  1  0  0  0  0
  8  9  1  0  0  0  0
  8 10  1  0  0  0  0
 11 13  1  0  0  0  0
 11  8  1  0  0  0  0
 12 11  1  0  0  0  0
 14  4  1  0  0  0  0
 14 11  1  0  0  0  0
M  END
$$$$
Title Card Required
 OpenBabel06272217483D

 14 13  0  0  0  0  0  0  0  0999 V2000
   -1.3661   -1.3488    0.8879 C   0  0  0  0  0  0  0  0  0  0  0  0
   -0.6345   -1.9326    1.5423 H   0  0  0  0  0  0  0  0  0  0  0  0
   -2.2323   -2.0077    0.6418 H   0  0  0  0  0  0  0  0  0  0  0  0
   -1.2963   -0.9458   -0.6681 C   0  0  0  0  0  0  0  0  0  0  0  0
   -1.4870   -1.7355   -1.4384 H   0  0  0  0  0  0  0  0  0  0  0  0
   -0.4262   -0.4538   -1.0838 H   0  0  0  0  0  0  0  0  0  0  0  0
    1.6986    0.2999   -0.1657 Br  0  0  0  0  0 15  0  0  0  0  0  0
   -1.8404    0.0096    1.4631 C   0  0  0  0  0  0  0  0  0  0  0  0
   -0.8614    0.7306    1.5767 H   0  0  0  0  0  0  0  0  0  0  0  0
   -2.3871   -0.3488    2.2673 H   0  0  0  0  0  0  0  0  0  0  0  0
   -2.5763    0.6569    0.2965 C   0  0  0  0  0  0  0  0  0  0  0  0
   -1.8524    1.4282   -0.0218 H   0  0  0  0  0  0  0  0  0  0  0  0
   -3.6431    0.9628    0.4052 H   0  0  0  0  0  0  0  0  0  0  0  0
   -2.2178   -0.0466   -0.9128 O   0  0  0  0  0  0  0  0  0  0  0  0
  1  8  1  0  0  0  0
  1  2  1  0  0  0  0
  3  1  1  0  0  0  0
  4  1  1  0  0  0  0
  5  4  1  0  0  0  0
  6  4  1  0  0  0  0
  8  9  1  0  0  0  0
  8 10  1  0  0  0  0
 11 13  1  0  0  0  0
 11  8  1  0  0  0  0
 12 11  1  0  0  0  0
 14  4  1  0  0  0  0
 14 11  1  0  0  0  0
M  END
$$$$
Title Card Required
 OpenBabel06272217483D

 14 13  0  0  0  0  0  0  0  0999 V2000
   -1.3878   -1.3472    0.8883 C   0  0  0  0  0  0  0  0  0  0  0  0
   -0.6467   -1.9610    1.5200 H   0  0  0  0  0  0  0  0  0  0  0  0
   -2.1297   -2.0305    0.6233 H   0  0  0  0  0  0  0  0  0  0  0  0
   -1.2993   -0.9445   -0.6580 C   0  0  0  0  0  0  0  0  0  0  0  0
   -1.4981   -1.7648   -1.3435 H   0  0  0  0  0  0  0  0  0  0  0  0
   -0.4365   -0.5098   -1.0800 H   0  0  0  0  0  0  0  0  0  0  0  0
    1.7033    0.3016   -0.1674 Br  0  0  0  0  0 15  0  0  0  0  0  0
   -1.8421   -0.0021    1.4411 C   0  0  0  0  0  0  0  0  0  0  0  0
   -0.9089    0.6817    1.6087 H   0  0  0  0  0  0  0  0  0  0  0  0
   -2.4022   -0.3950    2.3333 H   0  0  0  0  0  0  0  0  0  0  0  0
   -2.5807    0.6579    0.2854 C   0  0  0  0  0  0  0  0  0  0  0  0
   -1.8467    1.4386   -0.0884 H   0  0  0  0  0  0  0  0  0  0  0  0
   -3.6612    0.9628    0.3971 H   0  0  0  0  0  0  0  0  0  0  0  0
   -2.2175   -0.0353   -0.8925 O   0  0  0  0  0  0  0  0  0  0  0  0
  1  8  1  0  0  0  0
  1  2  1  0  0  0  0
  3  1  1  0  0  0  0
  4  1  1  0  0  0  0
  5  4  1  0  0  0  0
  6  4  1  0  0  0  0
  8  9  1  0  0  0  0
  8 10  1  0  0  0  0
 11 13  1  0  0  0  0
 11  8  1  0  0  0  0
 12 11  1  0  0  0  0
 14  4  1  0  0  0  0
 14 11  1  0  0  0  0
M  END
$$$$
Title Card Required
 OpenBabel06272217483D

 14 13  0  0  0  0  0  0  0  0999 V2000
   -1.4072   -1.3447    0.8860 C   0  0  0  0  0  0  0  0  0  0  0  0
   -0.6627   -1.9693    1.4765 H   0  0  0  0  0  0  0  0  0  0  0  0
   -2.0634   -2.0742    0.6210 H   0  0  0  0  0  0  0  0  0  0  0  0
   -1.2980   -0.9468   -0.6477 C   0  0  0  0  0  0  0  0  0  0  0  0
   -1.5123   -1.8119   -1.2467 H   0  0  0  0  0  0  0  0  0  0  0  0
   -0.4136   -0.5661   -1.0692 H   0  0  0  0  0  0  0  0  0  0  0  0
    1.7081    0.3034   -0.1690 Br  0  0  0  0  0 15  0  0  0  0  0  0
   -1.8429   -0.0148    1.4204 C   0  0  0  0  0  0  0  0  0  0  0  0
   -0.9767    0.6092    1.6484 H   0  0  0  0  0  0  0  0  0  0  0  0
   -2.4181   -0.4183    2.3995 H   0  0  0  0  0  0  0  0  0  0  0  0
   -2.5823    0.6615    0.2728 C   0  0  0  0  0  0  0  0  0  0  0  0
   -1.8652    1.4713   -0.1255 H   0  0  0  0  0  0  0  0  0  0  0  0
   -3.6674    0.9552    0.3841 H   0  0  0  0  0  0  0  0  0  0  0  0
   -2.2227   -0.0234   -0.8727 O   0  0  0  0  0  0  0  0  0  0  0  0
  1  8  1  0  0  0  0
  1  2  1  0  0  0  0
  3  1  1  0  0  0  0
  4  1  1  0  0  0  0
  5  4  1  0  0  0  0
  6  4  1  0  0  0  0
  8  9  1  0  0  0  0
  8 10  1  0  0  0  0
 11 13  1  0  0  0  0
 11  8  1  0  0  0  0
 12 11  1  0  0  0  0
 14  4  1  0  0  0  0
 14 11  1  0  0  0  0
M  END
$$$$
Title Card Required
 OpenBabel06272217483D

 14 13  0  0  0  0  0  0  0  0999 V2000
   -1.4226   -1.3410    0.8813 C   0  0  0  0  0  0  0  0  0  0  0  0
   -0.6759   -1.9562    1.4194 H   0  0  0  0  0  0  0  0  0  0  0  0
   -2.0510   -2.1461    0.6308 H   0  0  0  0  0  0  0  0  0  0  0  0
   -1.2936   -0.9524   -0.6371 C   0  0  0  0  0  0  0  0  0  0  0  0
   -1.5321   -1.8756   -1.1594 H   0  0  0  0  0  0  0  0  0  0  0  0
   -0.3604   -0.6172   -1.0545 H   0  0  0  0  0  0  0  0  0  0  0  0
    1.7130    0.3053   -0.1707 Br  0  0  0  0  0 15  0  0  0  0  0  0
   -1.8461   -0.0295    1.4039 C   0  0  0  0  0  0  0  0  0  0  0  0
   -1.0387    0.5337    1.6947 H   0  0  0  0  0  0  0  0  0  0  0  0
   -2.4245   -0.4113    2.4402 H   0  0  0  0  0  0  0  0  0  0  0  0
   -2.5812    0.6686    0.2598 C   0  0  0  0  0  0  0  0  0  0  0  0
   -1.9085    1.5216   -0.1266 H   0  0  0  0  0  0  0  0  0  0  0  0
   -3.6615    0.9397    0.3675 H   0  0  0  0  0  0  0  0  0  0  0  0
   -2.2322   -0.0124   -0.8548 O   0  0  0  0  0  0  0  0  0  0  0  0
  1  8  1  0  0  0  0
  1  2  1  0  0  0  0
  3  1  1  0  0  0  0
  4  1  1  0  0  0  0
  5  4  1  0  0  0  0
  6  4  1  0  0  0  0
  8  9  1  0  0  0  0
  8 10  1  0  0  0  0
 11 13  1  0  0  0  0
 11  8  1  0  0  0  0
 12 11  1  0  0  0  0
 14  4  1  0  0  0  0
 14 11  1  0  0  0  0
M  END
$$$$
Title Card Required
 OpenBabel06272217483D

 14 13  0  0  0  0  0  0  0  0999 V2000
   -1.4350   -1.3377    0.8736 C   0  0  0  0  0  0  0  0  0  0  0  0
   -0.6770   -1.9273    1.3596 H   0  0  0  0  0  0  0  0  0  0  0  0
   -2.0782   -2.2264    0.6545 H   0  0  0  0  0  0  0  0  0  0  0  0
   -1.2869   -0.9606   -0.6269 C   0  0  0  0  0  0  0  0  0  0  0  0
   -1.5554   -1.9433   -1.0862 H   0  0  0  0  0  0  0  0  0  0  0  0
   -0.2956   -0.6629   -1.0344 H   0  0  0  0  0  0  0  0  0  0  0  0
    1.7177    0.3071   -0.1722 Br  0  0  0  0  0 15  0  0  0  0  0  0
   -1.8541   -0.0466    1.3927 C   0  0  0  0  0  0  0  0  0  0  0  0
   -1.0661    0.4781    1.7496 H   0  0  0  0  0  0  0  0  0  0  0  0
   -2.4211   -0.3776    2.4476 H   0  0  0  0  0  0  0  0  0  0  0  0
   -2.5777    0.6791    0.2477 C   0  0  0  0  0  0  0  0  0  0  0  0
   -1.9709    1.5833   -0.0938 H   0  0  0  0  0  0  0  0  0  0  0  0
   -3.6492    0.9185    0.3499 H   0  0  0  0  0  0  0  0  0  0  0  0
   -2.2440   -0.0035   -0.8403 O   0  0  0  0  0  0  0  0  0  0  0  0
  1  2  1  0  0  0  0
  1  8  1  0  0  0  0
  3  1  1  0  0  0  0
  4  1  1  0  0  0  0
  5  4  1  0  0  0  0
  6  4  1  0  0  0  0
  8  9  1  0  0  0  0
  8 10  1  0  0  0  0
 11 13  1  0  0  0  0
 11  8  1  0  0  0  0
 12 11  1  0  0  0  0
 14  4  1  0  0  0  0
 14 11  1  0  0  0  0
M  END
$$$$
Title Card Required
 OpenBabel06272217483D

 14 13  0  0  0  0  0  0  0  0999 V2000
   -1.4462   -1.3367    0.8630 C   0  0  0  0  0  0  0  0  0  0  0  0
   -0.6592   -1.8909    1.3063 H   0  0  0  0  0  0  0  0  0  0  0  0
   -2.1223   -2.2907    0.6939 H   0  0  0  0  0  0  0  0  0  0  0  0
   -1.2786   -0.9712   -0.6178 C   0  0  0  0  0  0  0  0  0  0  0  0
   -1.5783   -2.0001   -1.0273 H   0  0  0  0  0  0  0  0  0  0  0  0
   -0.2379   -0.7049   -1.0069 H   0  0  0  0  0  0  0  0  0  0  0  0
    1.7222    0.3089   -0.1736 Br  0  0  0  0  0 15  0  0  0  0  0  0
   -1.8669   -0.0648    1.3864 C   0  0  0  0  0  0  0  0  0  0  0  0
   -1.0544    0.4477    1.8110 H   0  0  0  0  0  0  0  0  0  0  0  0
   -2.4124   -0.3257    2.4246 H   0  0  0  0  0  0  0  0  0  0  0  0
   -2.5723    0.6922    0.2377 C   0  0  0  0  0  0  0  0  0  0  0  0
   -2.0441    1.6503   -0.0356 H   0  0  0  0  0  0  0  0  0  0  0  0
   -3.6383    0.8942    0.3336 H   0  0  0  0  0  0  0  0  0  0  0  0
   -2.2566    0.0026   -0.8296 O   0  0  0  0  0  0  0  0  0  0  0  0
  1  2  1  0  0  0  0
  1  8  1  0  0  0  0
  3  1  1  0  0  0  0
  4  1  1  0  0  0  0
  5  4  1  0  0  0  0
  6  4  1  0  0  0  0
  8  9  1  0  0  0  0
  8 10  1  0  0  0  0
 11 13  1  0  0  0  0
 11  8  1  0  0  0  0
 12 11  1  0  0  0  0
 14  4  1  0  0  0  0
 14 11  1  0  0  0  0
M  END
$$$$
Title Card Required
 OpenBabel06272217483D

 14 13  0  0  0  0  0  0  0  0999 V2000
   -1.4575   -1.3388    0.8497 C   0  0  0  0  0  0  0  0  0  0  0  0
   -0.6214   -1.8517    1.2623 H   0  0  0  0  0  0  0  0  0  0  0  0
   -2.1688   -2.3275    0.7475 H   0  0  0  0  0  0  0  0  0  0  0  0
   -1.2695   -0.9841   -0.6102 C   0  0  0  0  0  0  0  0  0  0  0  0
   -1.5978   -2.0377   -0.9820 H   0  0  0  0  0  0  0  0  0  0  0  0
   -0.1968   -0.7440   -0.9715 H   0  0  0  0  0  0  0  0  0  0  0  0
    1.7267    0.3106   -0.1749 Br  0  0  0  0  0 15  0  0  0  0  0  0
   -1.8824   -0.0822    1.3851 C   0  0  0  0  0  0  0  0  0  0  0  0
   -1.0218    0.4310    1.8694 H   0  0  0  0  0  0  0  0  0  0  0  0
   -2.4043   -0.2638    2.3791 H   0  0  0  0  0  0  0  0  0  0  0  0
   -2.5657    0.7075    0.2302 C   0  0  0  0  0  0  0  0  0  0  0  0
   -2.1215    1.7189    0.0394 H   0  0  0  0  0  0  0  0  0  0  0  0
   -3.6343    0.8682    0.3204 H   0  0  0  0  0  0  0  0  0  0  0  0
   -2.2687    0.0060   -0.8226 O   0  0  0  0  0  0  0  0  0  0  0  0
  1  2  1  0  0  0  0
  1  8  1  0  0  0  0
  3  1  1  0  0  0  0
  4  1  1  0  0  0  0
  5  4  1  0  0  0  0
  6  4  1  0  0  0  0
  8  9  1  0  0  0  0
  8 10  1  0  0  0  0
 11 13  1  0  0  0  0
 11  8  1  0  0  0  0
 12 11  1  0  0  0  0
 14  4  1  0  0  0  0
 14 11  1  0  0  0  0
M  END
$$$$
Title Card Required
 OpenBabel06272217483D

 14 13  0  0  0  0  0  0  0  0999 V2000
   -1.4694   -1.3448    0.8346 C   0  0  0  0  0  0  0  0  0  0  0  0
   -0.5682   -1.8101    1.2262 H   0  0  0  0  0  0  0  0  0  0  0  0
   -2.2104   -2.3342    0.8126 H   0  0  0  0  0  0  0  0  0  0  0  0
   -1.2603   -0.9993   -0.6039 C   0  0  0  0  0  0  0  0  0  0  0  0
   -1.6123   -2.0532   -0.9504 H   0  0  0  0  0  0  0  0  0  0  0  0
   -0.1749   -0.7805   -0.9290 H   0  0  0  0  0  0  0  0  0  0  0  0
    1.7311    0.3124   -0.1761 Br  0  0  0  0  0 15  0  0  0  0  0  0
   -1.8988   -0.0973    1.3882 C   0  0  0  0  0  0  0  0  0  0  0  0
   -0.9868    0.4165    1.9147 H   0  0  0  0  0  0  0  0  0  0  0  0
   -2.4043   -0.1981    2.3226 H   0  0  0  0  0  0  0  0  0  0  0  0
   -2.5582    0.7248    0.2257 C   0  0  0  0  0  0  0  0  0  0  0  0
   -2.1993    1.7866    0.1251 H   0  0  0  0  0  0  0  0  0  0  0  0
   -3.6395    0.8405    0.3112 H   0  0  0  0  0  0  0  0  0  0  0  0
   -2.2802    0.0070   -0.8194 O   0  0  0  0  0  0  0  0  0  0  0  0
  1  2  1  0  0  0  0
  1  8  1  0  0  0  0
  3  1  1  0  0  0  0
  4  1  1  0  0  0  0
  5  4  1  0  0  0  0
  6  4  1  0  0  0  0
  8  9  1  0  0  0  0
  8 10  1  0  0  0  0
 11 13  1  0  0  0  0
 11  8  1  0  0  0  0
 12 11  1  0  0  0  0
 14  4  1  0  0  0  0
 14 11  1  0  0  0  0
M  END
$$$$
Title Card Required
 OpenBabel06272217483D

 14 13  0  0  0  0  0  0  0  0999 V2000
   -1.4817   -1.3550    0.8187 C   0  0  0  0  0  0  0  0  0  0  0  0
   -0.5081   -1.7636    1.1947 H   0  0  0  0  0  0  0  0  0  0  0  0
   -2.2423   -2.3103    0.8864 H   0  0  0  0  0  0  0  0  0  0  0  0
   -1.2515   -1.0169   -0.5989 C   0  0  0  0  0  0  0  0  0  0  0  0
   -1.6213   -2.0468   -0.9340 H   0  0  0  0  0  0  0  0  0  0  0  0
   -0.1715   -0.8134   -0.8804 H   0  0  0  0  0  0  0  0  0  0  0  0
    1.7356    0.3142   -0.1774 Br  0  0  0  0  0 15  0  0  0  0  0  0
   -1.9142   -0.1093    1.3945 C   0  0  0  0  0  0  0  0  0  0  0  0
   -0.9610    0.3975    1.9402 H   0  0  0  0  0  0  0  0  0  0  0  0
   -2.4240   -0.1334    2.2736 H   0  0  0  0  0  0  0  0  0  0  0  0
   -2.5503    0.7441    0.2246 C   0  0  0  0  0  0  0  0  0  0  0  0
   -2.2749    1.8501    0.2168 H   0  0  0  0  0  0  0  0  0  0  0  0
   -3.6526    0.8104    0.3065 H   0  0  0  0  0  0  0  0  0  0  0  0
   -2.2905    0.0057   -0.8197 O   0  0  0  0  0  0  0  0  0  0  0  0
  1  3  1  0  0  0  0
  1  2  1  0  0  0  0
  1  8  1  0  0  0  0
  4  1  1  0  0  0  0
  5  4  1  0  0  0  0
  6  4  1  0  0  0  0
  8  9  1  0  0  0  0
  8 10  1  0  0  0  0
 11 13  1  0  0  0  0
 11  8  1  0  0  0  0
 12 11  1  0  0  0  0
 14  4  1  0  0  0  0
 14 11  1  0  0  0  0
M  END
$$$$
Title Card Required
 OpenBabel06272217483D

 14 13  0  0  0  0  0  0  0  0999 V2000
   -1.4938   -1.3694    0.8034 C   0  0  0  0  0  0  0  0  0  0  0  0
   -0.4534   -1.7110    1.1652 H   0  0  0  0  0  0  0  0  0  0  0  0
   -2.2606   -2.2583    0.9637 H   0  0  0  0  0  0  0  0  0  0  0  0
   -1.2441   -1.0364   -0.5950 C   0  0  0  0  0  0  0  0  0  0  0  0
   -1.6249   -2.0219   -0.9365 H   0  0  0  0  0  0  0  0  0  0  0  0
   -0.1823   -0.8407   -0.8289 H   0  0  0  0  0  0  0  0  0  0  0  0
    1.7403    0.3160   -0.1786 Br  0  0  0  0  0 15  0  0  0  0  0  0
   -1.9269   -0.1172    1.4024 C   0  0  0  0  0  0  0  0  0  0  0  0
   -0.9513    0.3714    1.9420 H   0  0  0  0  0  0  0  0  0  0  0  0
   -2.4757   -0.0738    2.2526 H   0  0  0  0  0  0  0  0  0  0  0  0
   -2.5430    0.7651    0.2273 C   0  0  0  0  0  0  0  0  0  0  0  0
   -2.3449    1.9034    0.3087 H   0  0  0  0  0  0  0  0  0  0  0  0
   -3.6689    0.7782    0.3068 H   0  0  0  0  0  0  0  0  0  0  0  0
   -2.2994    0.0025   -0.8236 O   0  0  0  0  0  0  0  0  0  0  0  0
  1  3  1  0  0  0  0
  1  2  1  0  0  0  0
  1  8  1  0  0  0  0
  4  1  1  0  0  0  0
  5  4  1  0  0  0  0
  6  4  1  0  0  0  0
  8  9  1  0  0  0  0
  8 10  1  0  0  0  0
 11 13  1  0  0  0  0
 11 12  1  0  0  0  0
 11  8  1  0  0  0  0
 14  4  1  0  0  0  0
 14 11  1  0  0  0  0
M  END
$$$$
Title Card Required
 OpenBabel06272217483D

 14 13  0  0  0  0  0  0  0  0999 V2000
   -1.5049   -1.3872    0.7908 C   0  0  0  0  0  0  0  0  0  0  0  0
   -0.4158   -1.6545    1.1374 H   0  0  0  0  0  0  0  0  0  0  0  0
   -2.2646   -2.1874    1.0372 H   0  0  0  0  0  0  0  0  0  0  0  0
   -1.2394   -1.0567   -0.5923 C   0  0  0  0  0  0  0  0  0  0  0  0
   -1.6253   -1.9881   -0.9620 H   0  0  0  0  0  0  0  0  0  0  0  0
   -0.1987   -0.8592   -0.7798 H   0  0  0  0  0  0  0  0  0  0  0  0
    1.7451    0.3179   -0.1799 Br  0  0  0  0  0 15  0  0  0  0  0  0
   -1.9359   -0.1208    1.4109 C   0  0  0  0  0  0  0  0  0  0  0  0
   -0.9612    0.3391    1.9200 H   0  0  0  0  0  0  0  0  0  0  0  0
   -2.5598   -0.0225    2.2633 H   0  0  0  0  0  0  0  0  0  0  0  0
   -2.5371    0.7866    0.2339 C   0  0  0  0  0  0  0  0  0  0  0  0
   -2.4047    1.9401    0.3928 H   0  0  0  0  0  0  0  0  0  0  0  0
   -3.6816    0.7457    0.3123 H   0  0  0  0  0  0  0  0  0  0  0  0
   -2.3064   -0.0022   -0.8308 O   0  0  0  0  0  0  0  0  0  0  0  0
  1  3  1  0  0  0  0
  1  2  1  0  0  0  0
  1  8  1  0  0  0  0
  4  1  1  0  0  0  0
  5  4  1  0  0  0  0
  6  4  1  0  0  0  0
  8  9  1  0  0  0  0
  8 10  1  0  0  0  0
 11 13  1  0  0  0  0
 11 12  1  0  0  0  0
 11  8  1  0  0  0  0
 14  4  1  0  0  0  0
 14 11  1  0  0  0  0
M  END
$$$$
Title Card Required
 OpenBabel06272217483D

 14 13  0  0  0  0  0  0  0  0999 V2000
   -1.5142   -1.4070    0.7819 C   0  0  0  0  0  0  0  0  0  0  0  0
   -0.4019   -1.5971    1.1118 H   0  0  0  0  0  0  0  0  0  0  0  0
   -2.2598   -2.1119    1.1038 H   0  0  0  0  0  0  0  0  0  0  0  0
   -1.2384   -1.0768   -0.5904 C   0  0  0  0  0  0  0  0  0  0  0  0
   -1.6261   -1.9571   -1.0155 H   0  0  0  0  0  0  0  0  0  0  0  0
   -0.2097   -0.8664   -0.7368 H   0  0  0  0  0  0  0  0  0  0  0  0
    1.7500    0.3198   -0.1811 Br  0  0  0  0  0 15  0  0  0  0  0  0
   -1.9423   -0.1199    1.4211 C   0  0  0  0  0  0  0  0  0  0  0  0
   -0.9899    0.3031    1.8780 H   0  0  0  0  0  0  0  0  0  0  0  0
   -2.6623    0.0182    2.2876 H   0  0  0  0  0  0  0  0  0  0  0  0
   -2.5334    0.8080    0.2443 C   0  0  0  0  0  0  0  0  0  0  0  0
   -2.4521    1.9572    0.4647 H   0  0  0  0  0  0  0  0  0  0  0  0
   -3.6849    0.7146    0.3227 H   0  0  0  0  0  0  0  0  0  0  0  0
   -2.3115   -0.0077   -0.8409 O   0  0  0  0  0  0  0  0  0  0  0  0
  1  3  1  0  0  0  0
  1  2  1  0  0  0  0
  1  8  1  0  0  0  0
  4  1  1  0  0  0  0
  5  4  1  0  0  0  0
  6  4  1  0  0  0  0
  8  9  1  0  0  0  0
  8 10  1  0  0  0  0
 11 13  1  0  0  0  0
 11 12  1  0  0  0  0
 11  8  1  0  0  0  0
 14  4  1  0  0  0  0
 14 11  1  0  0  0  0
M  END
$$$$
Title Card Required
 OpenBabel06272217483D

 14 13  0  0  0  0  0  0  0  0999 V2000
   -1.5211   -1.4274    0.7773 C   0  0  0  0  0  0  0  0  0  0  0  0
   -0.4154   -1.5427    1.0909 H   0  0  0  0  0  0  0  0  0  0  0  0
   -2.2579   -2.0506    1.1658 H   0  0  0  0  0  0  0  0  0  0  0  0
   -1.2423   -1.0964   -0.5894 C   0  0  0  0  0  0  0  0  0  0  0  0
   -1.6296   -1.9378   -1.1041 H   0  0  0  0  0  0  0  0  0  0  0  0
   -0.2077   -0.8600   -0.7019 H   0  0  0  0  0  0  0  0  0  0  0  0
    1.7553    0.3218   -0.1823 Br  0  0  0  0  0 15  0  0  0  0  0  0
   -1.9482   -0.1143    1.4338 C   0  0  0  0  0  0  0  0  0  0  0  0
   -1.0308    0.2690    1.8229 H   0  0  0  0  0  0  0  0  0  0  0  0
   -2.7656    0.0444    2.3045 H   0  0  0  0  0  0  0  0  0  0  0  0
   -2.5324    0.8284    0.2588 C   0  0  0  0  0  0  0  0  0  0  0  0
   -2.4844    1.9542    0.5208 H   0  0  0  0  0  0  0  0  0  0  0  0
   -3.6745    0.6866    0.3383 H   0  0  0  0  0  0  0  0  0  0  0  0
   -2.3144   -0.0137   -0.8539 O   0  0  0  0  0  0  0  0  0  0  0  0
  1  2  1  0  0  0  0
  1  3  1  0  0  0  0
  1  8  1  0  0  0  0
  4  1  1  0  0  0  0
  5  4  1  0  0  0  0
  6  4  1  0  0  0  0
  8  9  1  0  0  0  0
  8 10  1  0  0  0  0
 11 13  1  0  0  0  0
 11 12  1  0  0  0  0
 11  8  1  0  0  0  0
 14  4  1  0  0  0  0
 14 11  1  0  0  0  0
M  END
$$$$
Title Card Required
 OpenBabel06272217483D

 14 13  0  0  0  0  0  0  0  0999 V2000
   -1.5248   -1.4466    0.7778 C   0  0  0  0  0  0  0  0  0  0  0  0
   -0.4557   -1.4984    1.0811 H   0  0  0  0  0  0  0  0  0  0  0  0
   -2.2727   -2.0253    1.2269 H   0  0  0  0  0  0  0  0  0  0  0  0
   -1.2524   -1.1152   -0.5902 C   0  0  0  0  0  0  0  0  0  0  0  0
   -1.6330   -1.9290   -1.2275 H   0  0  0  0  0  0  0  0  0  0  0  0
   -0.1936   -0.8388   -0.6775 H   0  0  0  0  0  0  0  0  0  0  0  0
    1.7610    0.3241   -0.1836 Br  0  0  0  0  0 15  0  0  0  0  0  0
   -1.9569   -0.1042    1.4489 C   0  0  0  0  0  0  0  0  0  0  0  0
   -1.0613    0.2509    1.7707 H   0  0  0  0  0  0  0  0  0  0  0  0
   -2.8488    0.0504    2.2984 H   0  0  0  0  0  0  0  0  0  0  0  0
   -2.5349    0.8460    0.2776 C   0  0  0  0  0  0  0  0  0  0  0  0
   -2.4964    1.9336    0.5557 H   0  0  0  0  0  0  0  0  0  0  0  0
   -3.6487    0.6650    0.3595 H   0  0  0  0  0  0  0  0  0  0  0  0
   -2.3149   -0.0197   -0.8695 O   0  0  0  0  0  0  0  0  0  0  0  0
  1  2  1  0  0  0  0
  1  3  1  0  0  0  0
  1  8  1  0  0  0  0
  4  1  1  0  0  0  0
  5  4  1  0  0  0  0
  6  4  1  0  0  0  0
  8  9  1  0  0  0  0
  8 10  1  0  0  0  0
 11 13  1  0  0  0  0
 11 12  1  0  0  0  0
 11  8  1  0  0  0  0
 14  4  1  0  0  0  0
 14 11  1  0  0  0  0
M  END
$$$$
Title Card Required
 OpenBabel06272217483D

 14 13  0  0  0  0  0  0  0  0999 V2000
   -1.5267   -1.4629    0.7837 C   0  0  0  0  0  0  0  0  0  0  0  0
   -0.5075   -1.4746    1.0925 H   0  0  0  0  0  0  0  0  0  0  0  0
   -2.3026   -2.0437    1.2826 H   0  0  0  0  0  0  0  0  0  0  0  0
   -1.2686   -1.1326   -0.5946 C   0  0  0  0  0  0  0  0  0  0  0  0
   -1.6272   -1.9170   -1.3646 H   0  0  0  0  0  0  0  0  0  0  0  0
   -0.1820   -0.8075   -0.6650 H   0  0  0  0  0  0  0  0  0  0  0  0
    1.7670    0.3264   -0.1849 Br  0  0  0  0  0 15  0  0  0  0  0  0
   -1.9715   -0.0909    1.4640 C   0  0  0  0  0  0  0  0  0  0  0  0
   -1.0496    0.2656    1.7431 H   0  0  0  0  0  0  0  0  0  0  0  0
   -2.8912    0.0326    2.2640 H   0  0  0  0  0  0  0  0  0  0  0  0
   -2.5405    0.8572    0.2993 C   0  0  0  0  0  0  0  0  0  0  0  0
   -2.4829    1.9082    0.5648 H   0  0  0  0  0  0  0  0  0  0  0  0
   -3.6146    0.6534    0.3848 H   0  0  0  0  0  0  0  0  0  0  0  0
   -2.3127   -0.0248   -0.8866 O   0  0  0  0  0  0  0  0  0  0  0  0
  1  2  1  0  0  0  0
  1  3  1  0  0  0  0
  1  8  1  0  0  0  0
  4  1  1  0  0  0  0
  5  4  1  0  0  0  0
  6  4  1  0  0  0  0
  8  9  1  0  0  0  0
  8 10  1  0  0  0  0
 11 13  1  0  0  0  0
 11 12  1  0  0  0  0
 11  8  1  0  0  0  0
 14  4  1  0  0  0  0
 14 11  1  0  0  0  0
M  END
$$$$
Title Card Required
 OpenBabel06272217483D

 14 13  0  0  0  0  0  0  0  0999 V2000
   -1.5303   -1.4758    0.7946 C   0  0  0  0  0  0  0  0  0  0  0  0
   -0.5434   -1.4763    1.1312 H   0  0  0  0  0  0  0  0  0  0  0  0
   -2.3276   -2.0902    1.3199 H   0  0  0  0  0  0  0  0  0  0  0  0
   -1.2887   -1.1475   -0.6040 C   0  0  0  0  0  0  0  0  0  0  0  0
   -1.6063   -1.8897   -1.4823 H   0  0  0  0  0  0  0  0  0  0  0  0
   -0.1893   -0.7761   -0.6632 H   0  0  0  0  0  0  0  0  0  0  0  0
    1.7729    0.3286   -0.1861 Br  0  0  0  0  0 15  0  0  0  0  0  0
   -1.9904   -0.0758    1.4771 C   0  0  0  0  0  0  0  0  0  0  0  0
   -1.0037    0.3089    1.7438 H   0  0  0  0  0  0  0  0  0  0  0  0
   -2.8872   -0.0049    2.2109 H   0  0  0  0  0  0  0  0  0  0  0  0
   -2.5478    0.8595    0.3212 C   0  0  0  0  0  0  0  0  0  0  0  0
   -2.4446    1.8967    0.5509 H   0  0  0  0  0  0  0  0  0  0  0  0
   -3.5898    0.6522    0.4110 H   0  0  0  0  0  0  0  0  0  0  0  0
   -2.3082   -0.0283   -0.9030 O   0  0  0  0  0  0  0  0  0  0  0  0
  1  2  1  0  0  0  0
  1  3  1  0  0  0  0
  1  8  1  0  0  0  0
  4  1  1  0  0  0  0
  5  4  1  0  0  0  0
  6  4  1  0  0  0  0
  8  9  1  0  0  0  0
  8 10  1  0  0  0  0
 11 13  1  0  0  0  0
 11 12  1  0  0  0  0
 11  8  1  0  0  0  0
 14  4  1  0  0  0  0
 14 11  1  0  0  0  0
M  END
$$$$
Title Card Required
 OpenBabel06272217483D

 14 13  0  0  0  0  0  0  0  0999 V2000
   -1.5377   -1.4860    0.8090 C   0  0  0  0  0  0  0  0  0  0  0  0
   -0.5517   -1.5002    1.1930 H   0  0  0  0  0  0  0  0  0  0  0  0
   -2.3335   -2.1458    1.3320 H   0  0  0  0  0  0  0  0  0  0  0  0
   -1.3108   -1.1593   -0.6177 C   0  0  0  0  0  0  0  0  0  0  0  0
   -1.5726   -1.8469   -1.5638 H   0  0  0  0  0  0  0  0  0  0  0  0
   -0.2203   -0.7512   -0.6687 H   0  0  0  0  0  0  0  0  0  0  0  0
    1.7784    0.3307   -0.1872 Br  0  0  0  0  0 15  0  0  0  0  0  0
   -2.0086   -0.0598    1.4874 C   0  0  0  0  0  0  0  0  0  0  0  0
   -0.9623    0.3607    1.7611 H   0  0  0  0  0  0  0  0  0  0  0  0
   -2.8529   -0.0541    2.1576 H   0  0  0  0  0  0  0  0  0  0  0  0
   -2.5549    0.8536    0.3415 C   0  0  0  0  0  0  0  0  0  0  0  0
   -2.3876    1.9051    0.5201 H   0  0  0  0  0  0  0  0  0  0  0  0
   -3.5885    0.6590    0.4357 H   0  0  0  0  0  0  0  0  0  0  0  0
   -2.3023   -0.0302   -0.9176 O   0  0  0  0  0  0  0  0  0  0  0  0
  1  2  1  0  0  0  0
  1  3  1  0  0  0  0
  1  8  1  0  0  0  0
  4  1  1  0  0  0  0
  5  4  1  0  0  0  0
  6  4  1  0  0  0  0
  8  9  1  0  0  0  0
  8 10  1  0  0  0  0
 11 13  1  0  0  0  0
 11 12  1  0  0  0  0
 11  8  1  0  0  0  0
 14  4  1  0  0  0  0
 14 11  1  0  0  0  0
M  END
$$$$
Title Card Required
 OpenBabel06272217483D

 14 13  0  0  0  0  0  0  0  0999 V2000
   -1.5482   -1.4942    0.8260 C   0  0  0  0  0  0  0  0  0  0  0  0
   -0.5435   -1.5408    1.2666 H   0  0  0  0  0  0  0  0  0  0  0  0
   -2.3191   -2.2005    1.3205 H   0  0  0  0  0  0  0  0  0  0  0  0
   -1.3335   -1.1681   -0.6344 C   0  0  0  0  0  0  0  0  0  0  0  0
   -1.5316   -1.7948   -1.6085 H   0  0  0  0  0  0  0  0  0  0  0  0
   -0.2713   -0.7352   -0.6787 H   0  0  0  0  0  0  0  0  0  0  0  0
    1.7837    0.3328   -0.1881 Br  0  0  0  0  0 15  0  0  0  0  0  0
   -2.0221   -0.0433    1.4941 C   0  0  0  0  0  0  0  0  0  0  0  0
   -0.9491    0.4074    1.7857 H   0  0  0  0  0  0  0  0  0  0  0  0
   -2.8161   -0.1095    2.1256 H   0  0  0  0  0  0  0  0  0  0  0  0
   -2.5610    0.8417    0.3595 C   0  0  0  0  0  0  0  0  0  0  0  0
   -2.3192    1.9224    0.4758 H   0  0  0  0  0  0  0  0  0  0  0  0
   -3.6123    0.6731    0.4573 H   0  0  0  0  0  0  0  0  0  0  0  0
   -2.2956   -0.0308   -0.9302 O   0  0  0  0  0  0  0  0  0  0  0  0
  1  2  1  0  0  0  0
  1  3  1  0  0  0  0
  1  8  1  0  0  0  0
  4  1  1  0  0  0  0
  5  4  1  0  0  0  0
  6  4  1  0  0  0  0
  8  9  1  0  0  0  0
  8 10  1  0  0  0  0
 11 13  1  0  0  0  0
 11 12  1  0  0  0  0
 11  8  1  0  0  0  0
 14  4  1  0  0  0  0
 14 11  1  0  0  0  0
M  END
$$$$
Title Card Required
 OpenBabel06272217483D

 14 13  0  0  0  0  0  0  0  0999 V2000
   -1.5599   -1.5007    0.8448 C   0  0  0  0  0  0  0  0  0  0  0  0
   -0.5364   -1.5925    1.3394 H   0  0  0  0  0  0  0  0  0  0  0  0
   -2.2893   -2.2501    1.2905 H   0  0  0  0  0  0  0  0  0  0  0  0
   -1.3565   -1.1736   -0.6526 C   0  0  0  0  0  0  0  0  0  0  0  0
   -1.4885   -1.7416   -1.6228 H   0  0  0  0  0  0  0  0  0  0  0  0
   -0.3342   -0.7271   -0.6911 H   0  0  0  0  0  0  0  0  0  0  0  0
    1.7888    0.3348   -0.1890 Br  0  0  0  0  0 15  0  0  0  0  0  0
   -2.0288   -0.0267    1.4967 C   0  0  0  0  0  0  0  0  0  0  0  0
   -0.9694    0.4434    1.8133 H   0  0  0  0  0  0  0  0  0  0  0  0
   -2.8013   -0.1696    2.1323 H   0  0  0  0  0  0  0  0  0  0  0  0
   -2.5662    0.8261    0.3751 C   0  0  0  0  0  0  0  0  0  0  0  0
   -2.2473    1.9320    0.4206 H   0  0  0  0  0  0  0  0  0  0  0  0
   -3.6515    0.6954    0.4743 H   0  0  0  0  0  0  0  0  0  0  0  0
   -2.2886   -0.0302   -0.9407 O   0  0  0  0  0  0  0  0  0  0  0  0
  1  3  1  0  0  0  0
  1  2  1  0  0  0  0
  1  8  1  0  0  0  0
  4  1  1  0  0  0  0
  5  4  1  0  0  0  0
  6  4  1  0  0  0  0
  8  9  1  0  0  0  0
  8 10  1  0  0  0  0
 11 12  1  0  0  0  0
 11 13  1  0  0  0  0
 11  8  1  0  0  0  0
 14  4  1  0  0  0  0
 14 11  1  0  0  0  0
M  END
$$$$
Title Card Required
 OpenBabel06272217483D

 14 13  0  0  0  0  0  0  0  0999 V2000
   -1.5712   -1.5056    0.8647 C   0  0  0  0  0  0  0  0  0  0  0  0
   -0.5422   -1.6491    1.4011 H   0  0  0  0  0  0  0  0  0  0  0  0
   -2.2521   -2.2941    1.2484 H   0  0  0  0  0  0  0  0  0  0  0  0
   -1.3795   -1.1759   -0.6704 C   0  0  0  0  0  0  0  0  0  0  0  0
   -1.4488   -1.6968   -1.6185 H   0  0  0  0  0  0  0  0  0  0  0  0
   -0.3974   -0.7239   -0.7041 H   0  0  0  0  0  0  0  0  0  0  0  0
    1.7938    0.3367   -0.1899 Br  0  0  0  0  0 15  0  0  0  0  0  0
   -2.0291   -0.0108    1.4959 C   0  0  0  0  0  0  0  0  0  0  0  0
   -1.0188    0.4671    1.8414 H   0  0  0  0  0  0  0  0  0  0  0  0
   -2.8100   -0.2326    2.1752 H   0  0  0  0  0  0  0  0  0  0  0  0
   -2.5711    0.8088    0.3876 C   0  0  0  0  0  0  0  0  0  0  0  0
   -2.1796    1.9220    0.3587 H   0  0  0  0  0  0  0  0  0  0  0  0
   -3.6924    0.7265    0.4855 H   0  0  0  0  0  0  0  0  0  0  0  0
   -2.2818   -0.0287   -0.9489 O   0  0  0  0  0  0  0  0  0  0  0  0
  1  3  1  0  0  0  0
  1  2  1  0  0  0  0
  1  8  1  0  0  0  0
  4  1  1  0  0  0  0
  5  4  1  0  0  0  0
  6  4  1  0  0  0  0
  8  9  1  0  0  0  0
  8 10  1  0  0  0  0
 11 13  1  0  0  0  0
 11  8  1  0  0  0  0
 12 11  1  0  0  0  0
 14  4  1  0  0  0  0
 14 11  1  0  0  0  0
M  END
$$$$
Title Card Required
 OpenBabel06272217483D

 14 13  0  0  0  0  0  0  0  0999 V2000
   -1.5813   -1.5091    0.8854 C   0  0  0  0  0  0  0  0  0  0  0  0
   -0.5657   -1.7077    1.4478 H   0  0  0  0  0  0  0  0  0  0  0  0
   -2.2151   -2.3359    1.1992 H   0  0  0  0  0  0  0  0  0  0  0  0
   -1.4033   -1.1748   -0.6867 C   0  0  0  0  0  0  0  0  0  0  0  0
   -1.4154   -1.6697   -1.6106 H   0  0  0  0  0  0  0  0  0  0  0  0
   -0.4504   -0.7212   -0.7163 H   0  0  0  0  0  0  0  0  0  0  0  0
    1.7987    0.3386   -0.1907 Br  0  0  0  0  0 15  0  0  0  0  0  0
   -2.0255    0.0036    1.4937 C   0  0  0  0  0  0  0  0  0  0  0  0
   -1.0899    0.4806    1.8705 H   0  0  0  0  0  0  0  0  0  0  0  0
   -2.8248   -0.2948    2.2373 H   0  0  0  0  0  0  0  0  0  0  0  0
   -2.5764    0.7906    0.3969 C   0  0  0  0  0  0  0  0  0  0  0  0
   -2.1195    1.8862    0.2925 H   0  0  0  0  0  0  0  0  0  0  0  0
   -3.7247    0.7664    0.4905 H   0  0  0  0  0  0  0  0  0  0  0  0
   -2.2754   -0.0262   -0.9551 O   0  0  0  0  0  0  0  0  0  0  0  0
  1  3  1  0  0  0  0
  1  2  1  0  0  0  0
  1  8  1  0  0  0  0
  4  1  1  0  0  0  0
  5  4  1  0  0  0  0
  6  4  1  0  0  0  0
  8  9  1  0  0  0  0
  8 10  1  0  0  0  0
 11 13  1  0  0  0  0
 11  8  1  0  0  0  0
 12 11  1  0  0  0  0
 14  4  1  0  0  0  0
 14 11  1  0  0  0  0
M  END
$$$$
Title Card Required
 OpenBabel06272217483D

 14 13  0  0  0  0  0  0  0  0999 V2000
   -1.5899   -1.5110    0.9070 C   0  0  0  0  0  0  0  0  0  0  0  0
   -0.6087   -1.7661    1.4774 H   0  0  0  0  0  0  0  0  0  0  0  0
   -2.1859   -2.3796    1.1457 H   0  0  0  0  0  0  0  0  0  0  0  0
   -1.4293   -1.1699   -0.7003 C   0  0  0  0  0  0  0  0  0  0  0  0
   -1.3902   -1.6702   -1.6138 H   0  0  0  0  0  0  0  0  0  0  0  0
   -0.4828   -0.7144   -0.7265 H   0  0  0  0  0  0  0  0  0  0  0  0
    1.8039    0.3406   -0.1915 Br  0  0  0  0  0 15  0  0  0  0  0  0
   -2.0206    0.0150    1.4923 C   0  0  0  0  0  0  0  0  0  0  0  0
   -1.1714    0.4888    1.9048 H   0  0  0  0  0  0  0  0  0  0  0  0
   -2.8279   -0.3494    2.3011 H   0  0  0  0  0  0  0  0  0  0  0  0
   -2.5827    0.7714    0.4022 C   0  0  0  0  0  0  0  0  0  0  0  0
   -2.0693    1.8196    0.2237 H   0  0  0  0  0  0  0  0  0  0  0  0
   -3.7403    0.8156    0.4888 H   0  0  0  0  0  0  0  0  0  0  0  0
   -2.2696   -0.0226   -0.9595 O   0  0  0  0  0  0  0  0  0  0  0  0
  1  3  1  0  0  0  0
  1  2  1  0  0  0  0
  1  8  1  0  0  0  0
  4  1  1  0  0  0  0
  5  4  1  0  0  0  0
  6  4  1  0  0  0  0
  8  9  1  0  0  0  0
  8 10  1  0  0  0  0
 11 13  1  0  0  0  0
 11  8  1  0  0  0  0
 12 11  1  0  0  0  0
 14  4  1  0  0  0  0
 14 11  1  0  0  0  0
M  END
$$$$
Title Card Required
 OpenBabel06272217483D

 14 13  0  0  0  0  0  0  0  0999 V2000
   -1.5967   -1.5110    0.9287 C   0  0  0  0  0  0  0  0  0  0  0  0
   -0.6676   -1.8203    1.4872 H   0  0  0  0  0  0  0  0  0  0  0  0
   -2.1731   -2.4253    1.0917 H   0  0  0  0  0  0  0  0  0  0  0  0
   -1.4572   -1.1606   -0.7099 C   0  0  0  0  0  0  0  0  0  0  0  0
   -1.3765   -1.7052   -1.6334 H   0  0  0  0  0  0  0  0  0  0  0  0
   -0.4872   -0.7025   -0.7328 H   0  0  0  0  0  0  0  0  0  0  0  0
    1.8094    0.3428   -0.1923 Br  0  0  0  0  0 15  0  0  0  0  0  0
   -2.0173    0.0206    1.4930 C   0  0  0  0  0  0  0  0  0  0  0  0
   -1.2398    0.5016    1.9520 H   0  0  0  0  0  0  0  0  0  0  0  0
   -2.8075   -0.3869    2.3502 H   0  0  0  0  0  0  0  0  0  0  0  0
   -2.5903    0.7518    0.4019 C   0  0  0  0  0  0  0  0  0  0  0  0
   -2.0328    1.7226    0.1573 H   0  0  0  0  0  0  0  0  0  0  0  0
   -3.7327    0.8716    0.4796 H   0  0  0  0  0  0  0  0  0  0  0  0
   -2.2650   -0.0179   -0.9616 O   0  0  0  0  0  0  0  0  0  0  0  0
  1  3  1  0  0  0  0
  1  2  1  0  0  0  0
  1  8  1  0  0  0  0
  4  1  1  0  0  0  0
  5  4  1  0  0  0  0
  6  4  1  0  0  0  0
  8  9  1  0  0  0  0
  8 10  1  0  0  0  0
 11 13  1  0  0  0  0
 11  8  1  0  0  0  0
 12 11  1  0  0  0  0
 14  4  1  0  0  0  0
 14 11  1  0  0  0  0
M  END
$$$$
Title Card Required
 OpenBabel06272217483D

 14 13  0  0  0  0  0  0  0  0999 V2000
   -1.6023   -1.5092    0.9486 C   0  0  0  0  0  0  0  0  0  0  0  0
   -0.7279   -1.8657    1.4800 H   0  0  0  0  0  0  0  0  0  0  0  0
   -2.1810   -2.4643    1.0416 H   0  0  0  0  0  0  0  0  0  0  0  0
   -1.4841   -1.1477   -0.7158 C   0  0  0  0  0  0  0  0  0  0  0  0
   -1.3784   -1.7667   -1.6552 H   0  0  0  0  0  0  0  0  0  0  0  0
   -0.4702   -0.6916   -0.7344 H   0  0  0  0  0  0  0  0  0  0  0  0
    1.8151    0.3450   -0.1931 Br  0  0  0  0  0 15  0  0  0  0  0  0
   -2.0180    0.0176    1.4966 C   0  0  0  0  0  0  0  0  0  0  0  0
   -1.2725    0.5281    2.0176 H   0  0  0  0  0  0  0  0  0  0  0  0
   -2.7620   -0.3994    2.3727 H   0  0  0  0  0  0  0  0  0  0  0  0
   -2.5988    0.7327    0.3948 C   0  0  0  0  0  0  0  0  0  0  0  0
   -2.0101    1.6090    0.1003 H   0  0  0  0  0  0  0  0  0  0  0  0
   -3.7021    0.9289    0.4634 H   0  0  0  0  0  0  0  0  0  0  0  0
   -2.2626   -0.0121   -0.9614 O   0  0  0  0  0  0  0  0  0  0  0  0
  1  3  1  0  0  0  0
  1  2  1  0  0  0  0
  1  8  1  0  0  0  0
  4  1  1  0  0  0  0
  5  4  1  0  0  0  0
  6  4  1  0  0  0  0
  8  9  1  0  0  0  0
  8 10  1  0  0  0  0
 11 13  1  0  0  0  0
 11  8  1  0  0  0  0
 12 11  1  0  0  0  0
 14  4  1  0  0  0  0
 14 11  1  0  0  0  0
M  END
$$$$
Title Card Required
 OpenBabel06272217483D

 14 13  0  0  0  0  0  0  0  0999 V2000
   -1.6085   -1.5061    0.9649 C   0  0  0  0  0  0  0  0  0  0  0  0
   -0.7693   -1.9040    1.4648 H   0  0  0  0  0  0  0  0  0  0  0  0
   -2.2089   -2.4841    0.9981 H   0  0  0  0  0  0  0  0  0  0  0  0
   -1.5074   -1.1324   -0.7190 C   0  0  0  0  0  0  0  0  0  0  0  0
   -1.3999   -1.8381   -1.6575 H   0  0  0  0  0  0  0  0  0  0  0  0
   -0.4478   -0.6909   -0.7320 H   0  0  0  0  0  0  0  0  0  0  0  0
    1.8210    0.3473   -0.1939 Br  0  0  0  0  0 15  0  0  0  0  0  0
   -2.0220    0.0057    1.5040 C   0  0  0  0  0  0  0  0  0  0  0  0
   -1.2735    0.5637    2.0928 H   0  0  0  0  0  0  0  0  0  0  0  0
   -2.6989   -0.3853    2.3660 H   0  0  0  0  0  0  0  0  0  0  0  0
   -2.6077    0.7131    0.3810 C   0  0  0  0  0  0  0  0  0  0  0  0
   -1.9925    1.5020    0.0549 H   0  0  0  0  0  0  0  0  0  0  0  0
   -3.6591    0.9845    0.4411 H   0  0  0  0  0  0  0  0  0  0  0  0
   -2.2631   -0.0056   -0.9588 O   0  0  0  0  0  0  0  0  0  0  0  0
  1  3  1  0  0  0  0
  1  2  1  0  0  0  0
  1  8  1  0  0  0  0
  4  1  1  0  0  0  0
  5  4  1  0  0  0  0
  6  4  1  0  0  0  0
  8  9  1  0  0  0  0
  8 10  1  0  0  0  0
 11 13  1  0  0  0  0
 11  8  1  0  0  0  0
 12 11  1  0  0  0  0
 14  4  1  0  0  0  0
 14 11  1  0  0  0  0
M  END
$$$$
Title Card Required
 OpenBabel06272217483D

 14 13  0  0  0  0  0  0  0  0999 V2000
   -1.6173   -1.5018    0.9763 C   0  0  0  0  0  0  0  0  0  0  0  0
   -0.7750   -1.9395    1.4495 H   0  0  0  0  0  0  0  0  0  0  0  0
   -2.2548   -2.4722    0.9642 H   0  0  0  0  0  0  0  0  0  0  0  0
   -1.5247   -1.1159   -0.7201 C   0  0  0  0  0  0  0  0  0  0  0  0
   -1.4453   -1.9041   -1.6236 H   0  0  0  0  0  0  0  0  0  0  0  0
   -0.4352   -0.7074   -0.7278 H   0  0  0  0  0  0  0  0  0  0  0  0
    1.8271    0.3498   -0.1947 Br  0  0  0  0  0 15  0  0  0  0  0  0
   -2.0272   -0.0141    1.5163 C   0  0  0  0  0  0  0  0  0  0  0  0
   -1.2629    0.5930    2.1567 H   0  0  0  0  0  0  0  0  0  0  0  0
   -2.6335   -0.3484    2.3377 H   0  0  0  0  0  0  0  0  0  0  0  0
   -2.6160    0.6915    0.3606 C   0  0  0  0  0  0  0  0  0  0  0  0
   -1.9647    1.4277    0.0207 H   0  0  0  0  0  0  0  0  0  0  0  0
   -3.6210    1.0391    0.4133 H   0  0  0  0  0  0  0  0  0  0  0  0
   -2.2675    0.0014   -0.9541 O   0  0  0  0  0  0  0  0  0  0  0  0
  1  2  1  0  0  0  0
  1  8  1  0  0  0  0
  3  1  1  0  0  0  0
  4  1  1  0  0  0  0
  5  4  1  0  0  0  0
  6  4  1  0  0  0  0
  8  9  1  0  0  0  0
  8 10  1  0  0  0  0
 11 13  1  0  0  0  0
 11  8  1  0  0  0  0
 12 11  1  0  0  0  0
 14  4  1  0  0  0  0
 14 11  1  0  0  0  0
M  END
$$$$
Title Card Required
 OpenBabel06272217483D

 14 13  0  0  0  0  0  0  0  0999 V2000
   -1.6285   -1.4968    0.9817 C   0  0  0  0  0  0  0  0  0  0  0  0
   -0.7463   -1.9696    1.4344 H   0  0  0  0  0  0  0  0  0  0  0  0
   -2.3134   -2.4225    0.9454 H   0  0  0  0  0  0  0  0  0  0  0  0
   -1.5337   -1.1005   -0.7191 C   0  0  0  0  0  0  0  0  0  0  0  0
   -1.5141   -1.9500   -1.5495 H   0  0  0  0  0  0  0  0  0  0  0  0
   -0.4414   -0.7417   -0.7248 H   0  0  0  0  0  0  0  0  0  0  0  0
    1.8334    0.3523   -0.1955 Br  0  0  0  0  0 15  0  0  0  0  0  0
   -2.0302   -0.0385    1.5314 C   0  0  0  0  0  0  0  0  0  0  0  0
   -1.2575    0.6004    2.1865 H   0  0  0  0  0  0  0  0  0  0  0  0
   -2.5996   -0.3037    2.3182 H   0  0  0  0  0  0  0  0  0  0  0  0
   -2.6217    0.6683    0.3356 C   0  0  0  0  0  0  0  0  0  0  0  0
   -1.9202    1.4044    0.0034 H   0  0  0  0  0  0  0  0  0  0  0  0
   -3.6050    1.0918    0.3820 H   0  0  0  0  0  0  0  0  0  0  0  0
   -2.2762    0.0083   -0.9480 O   0  0  0  0  0  0  0  0  0  0  0  0
  1  2  1  0  0  0  0
  1  8  1  0  0  0  0
  3  1  1  0  0  0  0
  4  1  1  0  0  0  0
  5  4  1  0  0  0  0
  6  4  1  0  0  0  0
  8  9  1  0  0  0  0
  8 10  1  0  0  0  0
 11 13  1  0  0  0  0
 11  8  1  0  0  0  0
 12 11  1  0  0  0  0
 14  4  1  0  0  0  0
 14 11  1  0  0  0  0
M  END
$$$$
Title Card Required
 OpenBabel06272217483D

 14 13  0  0  0  0  0  0  0  0999 V2000
   -1.6394   -1.4923    0.9817 C   0  0  0  0  0  0  0  0  0  0  0  0
   -0.7092   -1.9860    1.4135 H   0  0  0  0  0  0  0  0  0  0  0  0
   -2.3746   -2.3468    0.9437 H   0  0  0  0  0  0  0  0  0  0  0  0
   -1.5350   -1.0888   -0.7155 C   0  0  0  0  0  0  0  0  0  0  0  0
   -1.5950   -1.9706   -1.4524 H   0  0  0  0  0  0  0  0  0  0  0  0
   -0.4614   -0.7841   -0.7260 H   0  0  0  0  0  0  0  0  0  0  0  0
    1.8391    0.3546   -0.1962 Br  0  0  0  0  0 15  0  0  0  0  0  0
   -2.0291   -0.0626    1.5444 C   0  0  0  0  0  0  0  0  0  0  0  0
   -1.2616    0.5829    2.1766 H   0  0  0  0  0  0  0  0  0  0  0  0
   -2.6234   -0.2695    2.3404 H   0  0  0  0  0  0  0  0  0  0  0  0
   -2.6233    0.6474    0.3100 C   0  0  0  0  0  0  0  0  0  0  0  0
   -1.8748    1.4193    0.0112 H   0  0  0  0  0  0  0  0  0  0  0  0
   -3.6084    1.1356    0.3510 H   0  0  0  0  0  0  0  0  0  0  0  0
   -2.2880    0.0138   -0.9416 O   0  0  0  0  0  0  0  0  0  0  0  0
  1  2  1  0  0  0  0
  1  8  1  0  0  0  0
  3  1  1  0  0  0  0
  4  1  1  0  0  0  0
  5  4  1  0  0  0  0
  6  4  1  0  0  0  0
  8  9  1  0  0  0  0
  8 10  1  0  0  0  0
 11 13  1  0  0  0  0
 11  8  1  0  0  0  0
 12 11  1  0  0  0  0
 14  4  1  0  0  0  0
 14 11  1  0  0  0  0
M  END
$$$$
Title Card Required
 OpenBabel06272217483D

 14 13  0  0  0  0  0  0  0  0999 V2000
   -1.6485   -1.4883    0.9784 C   0  0  0  0  0  0  0  0  0  0  0  0
   -0.6837   -1.9869    1.3850 H   0  0  0  0  0  0  0  0  0  0  0  0
   -2.4333   -2.2636    0.9547 H   0  0  0  0  0  0  0  0  0  0  0  0
   -1.5318   -1.0808   -0.7096 C   0  0  0  0  0  0  0  0  0  0  0  0
   -1.6778   -1.9750   -1.3532 H   0  0  0  0  0  0  0  0  0  0  0  0
   -0.4816   -0.8242   -0.7325 H   0  0  0  0  0  0  0  0  0  0  0  0
    1.8442    0.3567   -0.1968 Br  0  0  0  0  0 15  0  0  0  0  0  0
   -2.0257   -0.0847    1.5545 C   0  0  0  0  0  0  0  0  0  0  0  0
   -1.2705    0.5492    2.1392 H   0  0  0  0  0  0  0  0  0  0  0  0
   -2.6866   -0.2455    2.3900 H   0  0  0  0  0  0  0  0  0  0  0  0
   -2.6213    0.6316    0.2861 C   0  0  0  0  0  0  0  0  0  0  0  0
   -1.8431    1.4480    0.0420 H   0  0  0  0  0  0  0  0  0  0  0  0
   -3.6159    1.1653    0.3220 H   0  0  0  0  0  0  0  0  0  0  0  0
   -2.3012    0.0176   -0.9359 O   0  0  0  0  0  0  0  0  0  0  0  0
  1  2  1  0  0  0  0
  1  8  1  0  0  0  0
  3  1  1  0  0  0  0
  4  1  1  0  0  0  0
  5  4  1  0  0  0  0
  6  4  1  0  0  0  0
  8  9  1  0  0  0  0
  8 10  1  0  0  0  0
 11 13  1  0  0  0  0
 11  8  1  0  0  0  0
 12 11  1  0  0  0  0
 14  4  1  0  0  0  0
 14 11  1  0  0  0  0
M  END
$$$$
Title Card Required
 OpenBabel06272217483D

 14 13  0  0  0  0  0  0  0  0999 V2000
   -1.6556   -1.4843    0.9729 C   0  0  0  0  0  0  0  0  0  0  0  0
   -0.6741   -1.9757    1.3490 H   0  0  0  0  0  0  0  0  0  0  0  0
   -2.4921   -2.1804    0.9741 H   0  0  0  0  0  0  0  0  0  0  0  0
   -1.5267   -1.0753   -0.7010 C   0  0  0  0  0  0  0  0  0  0  0  0
   -1.7626   -1.9742   -1.2589 H   0  0  0  0  0  0  0  0  0  0  0  0
   -0.4918   -0.8587   -0.7448 H   0  0  0  0  0  0  0  0  0  0  0  0
    1.8490    0.3586   -0.1973 Br  0  0  0  0  0 15  0  0  0  0  0  0
   -2.0225   -0.1060    1.5637 C   0  0  0  0  0  0  0  0  0  0  0  0
   -1.2785    0.5067    2.0853 H   0  0  0  0  0  0  0  0  0  0  0  0
   -2.7626   -0.2246    2.4401 H   0  0  0  0  0  0  0  0  0  0  0  0
   -2.6166    0.6206    0.2636 C   0  0  0  0  0  0  0  0  0  0  0  0
   -1.8280    1.4782    0.0912 H   0  0  0  0  0  0  0  0  0  0  0  0
   -3.6185    1.1804    0.2940 H   0  0  0  0  0  0  0  0  0  0  0  0
   -2.3156    0.0199   -0.9307 O   0  0  0  0  0  0  0  0  0  0  0  0
  1  3  1  0  0  0  0
  1  2  1  0  0  0  0
  1  8  1  0  0  0  0
  4  1  1  0  0  0  0
  5  4  1  0  0  0  0
  6  4  1  0  0  0  0
  8  9  1  0  0  0  0
  8 10  1  0  0  0  0
 11 13  1  0  0  0  0
 11  8  1  0  0  0  0
 12 11  1  0  0  0  0
 14  4  1  0  0  0  0
 14 11  1  0  0  0  0
M  END
$$$$
Title Card Required
 OpenBabel06272217483D

 14 13  0  0  0  0  0  0  0  0999 V2000
   -1.6613   -1.4796    0.9653 C   0  0  0  0  0  0  0  0  0  0  0  0
   -0.6807   -1.9552    1.3065 H   0  0  0  0  0  0  0  0  0  0  0  0
   -2.5532   -2.1007    1.0000 H   0  0  0  0  0  0  0  0  0  0  0  0
   -1.5210   -1.0717   -0.6892 C   0  0  0  0  0  0  0  0  0  0  0  0
   -1.8512   -1.9752   -1.1724 H   0  0  0  0  0  0  0  0  0  0  0  0
   -0.4854   -0.8869   -0.7642 H   0  0  0  0  0  0  0  0  0  0  0  0
    1.8537    0.3605   -0.1979 Br  0  0  0  0  0 15  0  0  0  0  0  0
   -2.0215   -0.1279    1.5728 C   0  0  0  0  0  0  0  0  0  0  0  0
   -1.2779    0.4623    2.0231 H   0  0  0  0  0  0  0  0  0  0  0  0
   -2.8350   -0.2038    2.4749 H   0  0  0  0  0  0  0  0  0  0  0  0
   -2.6095    0.6145    0.2426 C   0  0  0  0  0  0  0  0  0  0  0  0
   -1.8298    1.5050    0.1554 H   0  0  0  0  0  0  0  0  0  0  0  0
   -3.6128    1.1804    0.2666 H   0  0  0  0  0  0  0  0  0  0  0  0
   -2.3311    0.0206   -0.9262 O   0  0  0  0  0  0  0  0  0  0  0  0
  1  3  1  0  0  0  0
  1  2  1  0  0  0  0
  1  8  1  0  0  0  0
  4  1  1  0  0  0  0
  5  4  1  0  0  0  0
  6  4  1  0  0  0  0
  8  9  1  0  0  0  0
  8 10  1  0  0  0  0
 11 13  1  0  0  0  0
 11  8  1  0  0  0  0
 12 11  1  0  0  0  0
 14  4  1  0  0  0  0
 14 11  1  0  0  0  0
M  END
$$$$
Title Card Required
 OpenBabel06272217483D

 14 13  0  0  0  0  0  0  0  0999 V2000
   -1.6661   -1.4740    0.9558 C   0  0  0  0  0  0  0  0  0  0  0  0
   -0.7013   -1.9295    1.2600 H   0  0  0  0  0  0  0  0  0  0  0  0
   -2.6148   -2.0270    1.0303 H   0  0  0  0  0  0  0  0  0  0  0  0
   -1.5156   -1.0696   -0.6741 C   0  0  0  0  0  0  0  0  0  0  0  0
   -1.9427   -1.9802   -1.0956 H   0  0  0  0  0  0  0  0  0  0  0  0
   -0.4614   -0.9088   -0.7923 H   0  0  0  0  0  0  0  0  0  0  0  0
    1.8584    0.3625   -0.1984 Br  0  0  0  0  0 15  0  0  0  0  0  0
   -2.0245   -0.1509    1.5819 C   0  0  0  0  0  0  0  0  0  0  0  0
   -1.2589    0.4248    1.9615 H   0  0  0  0  0  0  0  0  0  0  0  0
   -2.8927   -0.1833    2.4865 H   0  0  0  0  0  0  0  0  0  0  0  0
   -2.6003    0.6136    0.2237 C   0  0  0  0  0  0  0  0  0  0  0  0
   -1.8482    1.5249    0.2303 H   0  0  0  0  0  0  0  0  0  0  0  0
   -3.5984    1.1650    0.2399 H   0  0  0  0  0  0  0  0  0  0  0  0
   -2.3474    0.0194   -0.9225 O   0  0  0  0  0  0  0  0  0  0  0  0
  1  3  1  0  0  0  0
  1  2  1  0  0  0  0
  1  8  1  0  0  0  0
  4  1  1  0  0  0  0
  5  4  1  0  0  0  0
  6  4  1  0  0  0  0
  8  9  1  0  0  0  0
  8 10  1  0  0  0  0
 11 12  1  0  0  0  0
 11 13  1  0  0  0  0
 11  8  1  0  0  0  0
 14  4  1  0  0  0  0
 14 11  1  0  0  0  0
M  END
$$$$
Title Card Required
 OpenBabel06272217483D

 14 13  0  0  0  0  0  0  0  0999 V2000
   -1.6711   -1.4671    0.9441 C   0  0  0  0  0  0  0  0  0  0  0  0
   -0.7296   -1.9046    1.2142 H   0  0  0  0  0  0  0  0  0  0  0  0
   -2.6710   -1.9619    1.0621 H   0  0  0  0  0  0  0  0  0  0  0  0
   -1.5107   -1.0696   -0.6559 C   0  0  0  0  0  0  0  0  0  0  0  0
   -2.0322   -1.9862   -1.0291 H   0  0  0  0  0  0  0  0  0  0  0  0
   -0.4272   -0.9261   -0.8290 H   0  0  0  0  0  0  0  0  0  0  0  0
    1.8632    0.3644   -0.1989 Br  0  0  0  0  0 15  0  0  0  0  0  0
   -2.0323   -0.1747    1.5907 C   0  0  0  0  0  0  0  0  0  0  0  0
   -1.2157    0.4001    1.9065 H   0  0  0  0  0  0  0  0  0  0  0  0
   -2.9280   -0.1642    2.4717 H   0  0  0  0  0  0  0  0  0  0  0  0
   -2.5894    0.6183    0.2083 C   0  0  0  0  0  0  0  0  0  0  0  0
   -1.8813    1.5358    0.3101 H   0  0  0  0  0  0  0  0  0  0  0  0
   -3.5783    1.1356    0.2151 H   0  0  0  0  0  0  0  0  0  0  0  0
   -2.3642    0.0161   -0.9201 O   0  0  0  0  0  0  0  0  0  0  0  0
  1  3  1  0  0  0  0
  1  2  1  0  0  0  0
  1  8  1  0  0  0  0
  4  1  1  0  0  0  0
  5  4  1  0  0  0  0
  6  4  1  0  0  0  0
  8  9  1  0  0  0  0
  8 10  1  0  0  0  0
 11 13  1  0  0  0  0
 11 12  1  0  0  0  0
 11  8  1  0  0  0  0
 14  4  1  0  0  0  0
 14 11  1  0  0  0  0
M  END
$$$$
Title Card Required
 OpenBabel06272217483D

 14 13  0  0  0  0  0  0  0  0999 V2000
   -1.6781   -1.4587    0.9300 C   0  0  0  0  0  0  0  0  0  0  0  0
   -0.7549   -1.8886    1.1746 H   0  0  0  0  0  0  0  0  0  0  0  0
   -2.7144   -1.9074    1.0917 H   0  0  0  0  0  0  0  0  0  0  0  0
   -1.5066   -1.0721   -0.6350 C   0  0  0  0  0  0  0  0  0  0  0  0
   -2.1124   -1.9870   -0.9726 H   0  0  0  0  0  0  0  0  0  0  0  0
   -0.3950   -0.9411   -0.8727 H   0  0  0  0  0  0  0  0  0  0  0  0
    1.8682    0.3664   -0.1994 Br  0  0  0  0  0 15  0  0  0  0  0  0
   -2.0447   -0.1983    1.5993 C   0  0  0  0  0  0  0  0  0  0  0  0
   -1.1541    0.3852    1.8583 H   0  0  0  0  0  0  0  0  0  0  0  0
   -2.9355   -0.1483    2.4298 H   0  0  0  0  0  0  0  0  0  0  0  0
   -2.5770    0.6290    0.1976 C   0  0  0  0  0  0  0  0  0  0  0  0
   -1.9250    1.5383    0.3888 H   0  0  0  0  0  0  0  0  0  0  0  0
   -3.5591    1.0954    0.1935 H   0  0  0  0  0  0  0  0  0  0  0  0
   -2.3809    0.0104   -0.9192 O   0  0  0  0  0  0  0  0  0  0  0  0
  1  3  1  0  0  0  0
  1  2  1  0  0  0  0
  1  8  1  0  0  0  0
  4  1  1  0  0  0  0
  5  4  1  0  0  0  0
  6  4  1  0  0  0  0
  8  9  1  0  0  0  0
  8 10  1  0  0  0  0
 11 12  1  0  0  0  0
 11  8  1  0  0  0  0
 13 11  1  0  0  0  0
 14  4  1  0  0  0  0
 14 11  1  0  0  0  0
M  END
$$$$
Title Card Required
 OpenBabel06272217483D

 14 13  0  0  0  0  0  0  0  0999 V2000
   -1.6890   -1.4483    0.9131 C   0  0  0  0  0  0  0  0  0  0  0  0
   -0.7667   -1.8898    1.1466 H   0  0  0  0  0  0  0  0  0  0  0  0
   -2.7382   -1.8674    1.1146 H   0  0  0  0  0  0  0  0  0  0  0  0
   -1.5036   -1.0780   -0.6117 C   0  0  0  0  0  0  0  0  0  0  0  0
   -2.1747   -1.9772   -0.9267 H   0  0  0  0  0  0  0  0  0  0  0  0
   -0.3787   -0.9563   -0.9205 H   0  0  0  0  0  0  0  0  0  0  0  0
    1.8734    0.3686   -0.1999 Br  0  0  0  0  0 15  0  0  0  0  0  0
   -2.0603   -0.2200    1.6075 C   0  0  0  0  0  0  0  0  0  0  0  0
   -1.0900    0.3700    1.8146 H   0  0  0  0  0  0  0  0  0  0  0  0
   -2.9130   -0.1375    2.3626 H   0  0  0  0  0  0  0  0  0  0  0  0
   -2.5632    0.6455    0.1926 C   0  0  0  0  0  0  0  0  0  0  0  0
   -1.9735    1.5366    0.4612 H   0  0  0  0  0  0  0  0  0  0  0  0
   -3.5518    1.0483    0.1772 H   0  0  0  0  0  0  0  0  0  0  0  0
   -2.3973    0.0016   -0.9200 O   0  0  0  0  0  0  0  0  0  0  0  0
  1  3  1  0  0  0  0
  1  2  1  0  0  0  0
  1  8  1  0  0  0  0
  4  1  1  0  0  0  0
  5  4  1  0  0  0  0
  6  4  1  0  0  0  0
  8  9  1  0  0  0  0
  8 10  1  0  0  0  0
 11 12  1  0  0  0  0
 11  8  1  0  0  0  0
 13 11  1  0  0  0  0
 14  4  1  0  0  0  0
 14 11  1  0  0  0  0
M  END
$$$$
Title Card Required
 OpenBabel06272217483D

 14 13  0  0  0  0  0  0  0  0999 V2000
   -1.7049   -1.4363    0.8933 C   0  0  0  0  0  0  0  0  0  0  0  0
   -0.7633   -1.9131    1.1347 H   0  0  0  0  0  0  0  0  0  0  0  0
   -2.7368   -1.8499    1.1246 H   0  0  0  0  0  0  0  0  0  0  0  0
   -1.5022   -1.0880   -0.5868 C   0  0  0  0  0  0  0  0  0  0  0  0
   -2.2080   -1.9538   -0.8956 H   0  0  0  0  0  0  0  0  0  0  0  0
   -0.3919   -0.9736   -0.9664 H   0  0  0  0  0  0  0  0  0  0  0  0
    1.8791    0.3709   -0.2004 Br  0  0  0  0  0 15  0  0  0  0  0  0
   -2.0761   -0.2374    1.6143 C   0  0  0  0  0  0  0  0  0  0  0  0
   -1.0446    0.3436    1.7764 H   0  0  0  0  0  0  0  0  0  0  0  0
   -2.8693   -0.1341    2.2835 H   0  0  0  0  0  0  0  0  0  0  0  0
   -2.5486    0.6676    0.1948 C   0  0  0  0  0  0  0  0  0  0  0  0
   -2.0160    1.5408    0.5207 H   0  0  0  0  0  0  0  0  0  0  0  0
   -3.5690    0.9990    0.1697 H   0  0  0  0  0  0  0  0  0  0  0  0
   -2.4128   -0.0105   -0.9227 O   0  0  0  0  0  0  0  0  0  0  0  0
  1  3  1  0  0  0  0
  1  2  1  0  0  0  0
  1  8  1  0  0  0  0
  4  1  1  0  0  0  0
  5  4  1  0  0  0  0
  6  4  1  0  0  0  0
  8  9  1  0  0  0  0
  8 10  1  0  0  0  0
 11 12  1  0  0  0  0
 11  8  1  0  0  0  0
 13 11  1  0  0  0  0
 14  4  1  0  0  0  0
 14 11  1  0  0  0  0
M  END
$$$$
Title Card Required
 OpenBabel06272217483D

 14 13  0  0  0  0  0  0  0  0999 V2000
   -1.7248   -1.4239    0.8717 C   0  0  0  0  0  0  0  0  0  0  0  0
   -0.7605   -1.9543    1.1398 H   0  0  0  0  0  0  0  0  0  0  0  0
   -2.7104   -1.8674    1.1136 H   0  0  0  0  0  0  0  0  0  0  0  0
   -1.5038   -1.1028   -0.5621 C   0  0  0  0  0  0  0  0  0  0  0  0
   -2.2013   -1.9200   -0.8872 H   0  0  0  0  0  0  0  0  0  0  0  0
   -0.4446   -0.9945   -1.0019 H   0  0  0  0  0  0  0  0  0  0  0  0
    1.8854    0.3734   -0.2010 Br  0  0  0  0  0 15  0  0  0  0  0  0
   -2.0865   -0.2478    1.6155 C   0  0  0  0  0  0  0  0  0  0  0  0
   -1.0383    0.2989    1.7491 H   0  0  0  0  0  0  0  0  0  0  0  0
   -2.8435   -0.1368    2.2325 H   0  0  0  0  0  0  0  0  0  0  0  0
   -2.5353    0.6942    0.2049 C   0  0  0  0  0  0  0  0  0  0  0  0
   -2.0388    1.5673    0.5609 H   0  0  0  0  0  0  0  0  0  0  0  0
   -3.6132    0.9502    0.1764 H   0  0  0  0  0  0  0  0  0  0  0  0
   -2.4265   -0.0260   -0.9267 O   0  0  0  0  0  0  0  0  0  0  0  0
  1  3  1  0  0  0  0
  1  2  1  0  0  0  0
  1  8  1  0  0  0  0
  4  1  1  0  0  0  0
  5  4  1  0  0  0  0
  6  4  1  0  0  0  0
  8  9  1  0  0  0  0
  8 10  1  0  0  0  0
 11 12  1  0  0  0  0
 11  8  1  0  0  0  0
 13 11  1  0  0  0  0
 14  4  1  0  0  0  0
 14 11  1  0  0  0  0
M  END
$$$$
Title Card Required
 OpenBabel06272217483D

 14 13  0  0  0  0  0  0  0  0999 V2000
   -1.7434   -1.4151    0.8534 C   0  0  0  0  0  0  0  0  0  0  0  0
   -0.7805   -1.9944    1.1558 H   0  0  0  0  0  0  0  0  0  0  0  0
   -2.6745   -1.9234    1.0806 H   0  0  0  0  0  0  0  0  0  0  0  0
   -1.5090   -1.1191   -0.5430 C   0  0  0  0  0  0  0  0  0  0  0  0
   -2.1602   -1.8945   -0.9089 H   0  0  0  0  0  0  0  0  0  0  0  0
   -0.5209   -1.0158   -1.0176 H   0  0  0  0  0  0  0  0  0  0  0  0
    1.8914    0.3758   -0.2015 Br  0  0  0  0  0 15  0  0  0  0  0  0
   -2.0858   -0.2488    1.6075 C   0  0  0  0  0  0  0  0  0  0  0  0
   -1.0746    0.2452    1.7428 H   0  0  0  0  0  0  0  0  0  0  0  0
   -2.8793   -0.1411    2.2532 H   0  0  0  0  0  0  0  0  0  0  0  0
   -2.5279    0.7198    0.2206 C   0  0  0  0  0  0  0  0  0  0  0  0
   -2.0351    1.6195    0.5724 H   0  0  0  0  0  0  0  0  0  0  0  0
   -3.6593    0.9091    0.1996 H   0  0  0  0  0  0  0  0  0  0  0  0
   -2.4359   -0.0419   -0.9301 O   0  0  0  0  0  0  0  0  0  0  0  0
  1  3  1  0  0  0  0
  1  2  1  0  0  0  0
  1  8  1  0  0  0  0
  4  1  1  0  0  0  0
  5  4  1  0  0  0  0
  6  4  1  0  0  0  0
  8  9  1  0  0  0  0
  8 10  1  0  0  0  0
 11 12  1  0  0  0  0
 11  8  1  0  0  0  0
 13 11  1  0  0  0  0
 14  4  1  0  0  0  0
 14 11  1  0  0  0  0
M  END
$$$$
Title Card Required
 OpenBabel06272217483D

 14 13  0  0  0  0  0  0  0  0999 V2000
   -1.7582   -1.4117    0.8407 C   0  0  0  0  0  0  0  0  0  0  0  0
   -0.8253   -2.0211    1.1747 H   0  0  0  0  0  0  0  0  0  0  0  0
   -2.6437   -2.0044    1.0342 H   0  0  0  0  0  0  0  0  0  0  0  0
   -1.5173   -1.1339   -0.5308 C   0  0  0  0  0  0  0  0  0  0  0  0
   -2.1073   -1.8933   -0.9565 H   0  0  0  0  0  0  0  0  0  0  0  0
   -0.5883   -1.0332   -1.0200 H   0  0  0  0  0  0  0  0  0  0  0  0
    1.8967    0.3780   -0.2020 Br  0  0  0  0  0 15  0  0  0  0  0  0
   -2.0797   -0.2423    1.5941 C   0  0  0  0  0  0  0  0  0  0  0  0
   -1.1265    0.1984    1.7580 H   0  0  0  0  0  0  0  0  0  0  0  0
   -2.9382   -0.1495    2.3101 H   0  0  0  0  0  0  0  0  0  0  0  0
   -2.5266    0.7417    0.2387 C   0  0  0  0  0  0  0  0  0  0  0  0
   -2.0172    1.6804    0.5569 H   0  0  0  0  0  0  0  0  0  0  0  0
   -3.6848    0.8789    0.2345 H   0  0  0  0  0  0  0  0  0  0  0  0
   -2.4414   -0.0560   -0.9317 O   0  0  0  0  0  0  0  0  0  0  0  0
  1  3  1  0  0  0  0
  1  2  1  0  0  0  0
  1  8  1  0  0  0  0
  4  1  1  0  0  0  0
  5  4  1  0  0  0  0
  6  4  1  0  0  0  0
  8  9  1  0  0  0  0
  8 10  1  0  0  0  0
 11 12  1  0  0  0  0
 11  8  1  0  0  0  0
 13 11  1  0  0  0  0
 14  4  1  0  0  0  0
 14 11  1  0  0  0  0
M  END
$$$$
Title Card Required
 OpenBabel06272217483D

 14 13  0  0  0  0  0  0  0  0999 V2000
   -1.7705   -1.4135    0.8329 C   0  0  0  0  0  0  0  0  0  0  0  0
   -0.8880   -2.0343    1.1946 H   0  0  0  0  0  0  0  0  0  0  0  0
   -2.6187   -2.1001    0.9781 H   0  0  0  0  0  0  0  0  0  0  0  0
   -1.5293   -1.1472   -0.5241 C   0  0  0  0  0  0  0  0  0  0  0  0
   -2.0536   -1.9206   -1.0265 H   0  0  0  0  0  0  0  0  0  0  0  0
   -0.6269   -1.0437   -1.0186 H   0  0  0  0  0  0  0  0  0  0  0  0
    1.9019    0.3800   -0.2024 Br  0  0  0  0  0 15  0  0  0  0  0  0
   -2.0748   -0.2304    1.5783 C   0  0  0  0  0  0  0  0  0  0  0  0
   -1.1651    0.1687    1.7959 H   0  0  0  0  0  0  0  0  0  0  0  0
   -2.9790   -0.1653    2.3639 H   0  0  0  0  0  0  0  0  0  0  0  0
   -2.5300    0.7612    0.2587 C   0  0  0  0  0  0  0  0  0  0  0  0
   -1.9957    1.7376    0.5168 H   0  0  0  0  0  0  0  0  0  0  0  0
   -3.6862    0.8585    0.2787 H   0  0  0  0  0  0  0  0  0  0  0  0
   -2.4443   -0.0686   -0.9314 O   0  0  0  0  0  0  0  0  0  0  0  0
  1  3  1  0  0  0  0
  1  2  1  0  0  0  0
  1  8  1  0  0  0  0
  4  1  1  0  0  0  0
  5  4  1  0  0  0  0
  6  4  1  0  0  0  0
  8  9  1  0  0  0  0
  8 10  1  0  0  0  0
 11 13  1  0  0  0  0
 11 12  1  0  0  0  0
 11  8  1  0  0  0  0
 14  4  1  0  0  0  0
 14 11  1  0  0  0  0
M  END
$$$$
Title Card Required
 OpenBabel06272217483D

 14 13  0  0  0  0  0  0  0  0999 V2000
   -1.7816   -1.4208    0.8297 C   0  0  0  0  0  0  0  0  0  0  0  0
   -0.9563   -2.0366    1.2157 H   0  0  0  0  0  0  0  0  0  0  0  0
   -2.5969   -2.1949    0.9178 H   0  0  0  0  0  0  0  0  0  0  0  0
   -1.5449   -1.1590   -0.5230 C   0  0  0  0  0  0  0  0  0  0  0  0
   -2.0018   -1.9683   -1.1083 H   0  0  0  0  0  0  0  0  0  0  0  0
   -0.6273   -1.0444   -1.0171 H   0  0  0  0  0  0  0  0  0  0  0  0
    1.9067    0.3820   -0.2028 Br  0  0  0  0  0 15  0  0  0  0  0  0
   -2.0751   -0.2151    1.5618 C   0  0  0  0  0  0  0  0  0  0  0  0
   -1.1687    0.1632    1.8566 H   0  0  0  0  0  0  0  0  0  0  0  0
   -2.9858   -0.1874    2.3966 H   0  0  0  0  0  0  0  0  0  0  0  0
   -2.5364    0.7782    0.2797 C   0  0  0  0  0  0  0  0  0  0  0  0
   -1.9785    1.7802    0.4568 H   0  0  0  0  0  0  0  0  0  0  0  0
   -3.6665    0.8493    0.3282 H   0  0  0  0  0  0  0  0  0  0  0  0
   -2.4453   -0.0794   -0.9289 O   0  0  0  0  0  0  0  0  0  0  0  0
  1  3  1  0  0  0  0
  1  2  1  0  0  0  0
  1  8  1  0  0  0  0
  4  1  1  0  0  0  0
  5  4  1  0  0  0  0
  6  4  1  0  0  0  0
  8  9  1  0  0  0  0
  8 10  1  0  0  0  0
 11 13  1  0  0  0  0
 11 12  1  0  0  0  0
 11  8  1  0  0  0  0
 14  4  1  0  0  0  0
 14 11  1  0  0  0  0
M  END
$$$$
Title Card Required
 OpenBabel06272217483D

 14 13  0  0  0  0  0  0  0  0999 V2000
   -1.7926   -1.4327    0.8302 C   0  0  0  0  0  0  0  0  0  0  0  0
   -1.0151   -2.0336    1.2398 H   0  0  0  0  0  0  0  0  0  0  0  0
   -2.5763   -2.2746    0.8596 H   0  0  0  0  0  0  0  0  0  0  0  0
   -1.5625   -1.1696   -0.5280 C   0  0  0  0  0  0  0  0  0  0  0  0
   -1.9510   -2.0203   -1.1868 H   0  0  0  0  0  0  0  0  0  0  0  0
   -0.6000   -1.0356   -1.0111 H   0  0  0  0  0  0  0  0  0  0  0  0
    1.9112    0.3838   -0.2032 Br  0  0  0  0  0 15  0  0  0  0  0  0
   -2.0799   -0.1978    1.5458 C   0  0  0  0  0  0  0  0  0  0  0  0
   -1.1453    0.1749    1.9316 H   0  0  0  0  0  0  0  0  0  0  0  0
   -2.9611   -0.2125    2.4043 H   0  0  0  0  0  0  0  0  0  0  0  0
   -2.5438    0.7925    0.3004 C   0  0  0  0  0  0  0  0  0  0  0  0
   -1.9697    1.8027    0.3850 H   0  0  0  0  0  0  0  0  0  0  0  0
   -3.6358    0.8513    0.3786 H   0  0  0  0  0  0  0  0  0  0  0  0
   -2.4450   -0.0883   -0.9246 O   0  0  0  0  0  0  0  0  0  0  0  0
  1  3  1  0  0  0  0
  1  2  1  0  0  0  0
  1  8  1  0  0  0  0
  4  1  1  0  0  0  0
  5  4  1  0  0  0  0
  6  4  1  0  0  0  0
  8  9  1  0  0  0  0
  8 10  1  0  0  0  0
 11 13  1  0  0  0  0
 11 12  1  0  0  0  0
 11  8  1  0  0  0  0
 14  4  1  0  0  0  0
 14 11  1  0  0  0  0
M  END
$$$$
Title Card Required
 OpenBabel06272217483D

 14 13  0  0  0  0  0  0  0  0999 V2000
   -1.8048   -1.4483    0.8332 C   0  0  0  0  0  0  0  0  0  0  0  0
   -1.0556   -2.0318    1.2703 H   0  0  0  0  0  0  0  0  0  0  0  0
   -2.5565   -2.3352    0.8061 H   0  0  0  0  0  0  0  0  0  0  0  0
   -1.5806   -1.1799   -0.5391 C   0  0  0  0  0  0  0  0  0  0  0  0
   -1.8992   -2.0657   -1.2545 H   0  0  0  0  0  0  0  0  0  0  0  0
   -0.5617   -1.0195   -0.9945 H   0  0  0  0  0  0  0  0  0  0  0  0
    1.9156    0.3855   -0.2035 Br  0  0  0  0  0 15  0  0  0  0  0  0
   -2.0872   -0.1784    1.5308 C   0  0  0  0  0  0  0  0  0  0  0  0
   -1.1169    0.1917    2.0098 H   0  0  0  0  0  0  0  0  0  0  0  0
   -2.9126   -0.2382    2.3899 H   0  0  0  0  0  0  0  0  0  0  0  0
   -2.5509    0.8044    0.3207 C   0  0  0  0  0  0  0  0  0  0  0  0
   -1.9700    1.8058    0.3063 H   0  0  0  0  0  0  0  0  0  0  0  0
   -3.6063    0.8638    0.4289 H   0  0  0  0  0  0  0  0  0  0  0  0
   -2.4439   -0.0958   -0.9184 O   0  0  0  0  0  0  0  0  0  0  0  0
  1  2  1  0  0  0  0
  1  8  1  0  0  0  0
  3  1  1  0  0  0  0
  4  1  1  0  0  0  0
  5  4  1  0  0  0  0
  6  4  1  0  0  0  0
  8  9  1  0  0  0  0
  8 10  1  0  0  0  0
 11 13  1  0  0  0  0
 11  8  1  0  0  0  0
 12 11  1  0  0  0  0
 14  4  1  0  0  0  0
 14 11  1  0  0  0  0
M  END
$$$$
Title Card Required
 OpenBabel06272217483D

 14 13  0  0  0  0  0  0  0  0999 V2000
   -1.8188   -1.4672    0.8376 C   0  0  0  0  0  0  0  0  0  0  0  0
   -1.0729   -2.0346    1.3098 H   0  0  0  0  0  0  0  0  0  0  0  0
   -2.5389   -2.3754    0.7596 H   0  0  0  0  0  0  0  0  0  0  0  0
   -1.5982   -1.1904   -0.5565 C   0  0  0  0  0  0  0  0  0  0  0  0
   -1.8463   -2.0986   -1.3072 H   0  0  0  0  0  0  0  0  0  0  0  0
   -0.5255   -0.9981   -0.9628 H   0  0  0  0  0  0  0  0  0  0  0  0
    1.9199    0.3873   -0.2038 Br  0  0  0  0  0 15  0  0  0  0  0  0
   -2.0951   -0.1569    1.5172 C   0  0  0  0  0  0  0  0  0  0  0  0
   -1.1001    0.2057    2.0811 H   0  0  0  0  0  0  0  0  0  0  0  0
   -2.8479   -0.2629    2.3573 H   0  0  0  0  0  0  0  0  0  0  0  0
   -2.5565    0.8141    0.3405 C   0  0  0  0  0  0  0  0  0  0  0  0
   -1.9789    1.7914    0.2239 H   0  0  0  0  0  0  0  0  0  0  0  0
   -3.5895    0.8869    0.4793 H   0  0  0  0  0  0  0  0  0  0  0  0
   -2.4426   -0.1021   -0.9105 O   0  0  0  0  0  0  0  0  0  0  0  0
  1  2  1  0  0  0  0
  1  8  1  0  0  0  0
  3  1  1  0  0  0  0
  4  1  1  0  0  0  0
  5  4  1  0  0  0  0
  6  4  1  0  0  0  0
  8  9  1  0  0  0  0
  8 10  1  0  0  0  0
 11 13  1  0  0  0  0
 11  8  1  0  0  0  0
 12 11  1  0  0  0  0
 14  4  1  0  0  0  0
 14 11  1  0  0  0  0
M  END
$$$$
Title Card Required
 OpenBabel06272217483D

 14 13  0  0  0  0  0  0  0  0999 V2000
   -1.8346   -1.4890    0.8429 C   0  0  0  0  0  0  0  0  0  0  0  0
   -1.0680   -2.0409    1.3570 H   0  0  0  0  0  0  0  0  0  0  0  0
   -2.5265   -2.3952    0.7229 H   0  0  0  0  0  0  0  0  0  0  0  0
   -1.6139   -1.2014   -0.5795 C   0  0  0  0  0  0  0  0  0  0  0  0
   -1.7945   -2.1149   -1.3425 H   0  0  0  0  0  0  0  0  0  0  0  0
   -0.5010   -0.9733   -0.9147 H   0  0  0  0  0  0  0  0  0  0  0  0
    1.9242    0.3890   -0.2041 Br  0  0  0  0  0 15  0  0  0  0  0  0
   -2.1020   -0.1338    1.5049 C   0  0  0  0  0  0  0  0  0  0  0  0
   -1.1033    0.2132    2.1362 H   0  0  0  0  0  0  0  0  0  0  0  0
   -2.7791   -0.2849    2.3153 H   0  0  0  0  0  0  0  0  0  0  0  0
   -2.5599    0.8213    0.3594 C   0  0  0  0  0  0  0  0  0  0  0  0
   -1.9943    1.7626    0.1416 H   0  0  0  0  0  0  0  0  0  0  0  0
   -3.5933    0.9207    0.5291 H   0  0  0  0  0  0  0  0  0  0  0  0
   -2.4413   -0.1072   -0.9009 O   0  0  0  0  0  0  0  0  0  0  0  0
  1  2  1  0  0  0  0
  1  8  1  0  0  0  0
  3  1  1  0  0  0  0
  4  1  1  0  0  0  0
  5  4  1  0  0  0  0
  6  4  1  0  0  0  0
  8  9  1  0  0  0  0
  8 10  1  0  0  0  0
 11 13  1  0  0  0  0
 11  8  1  0  0  0  0
 12 11  1  0  0  0  0
 14  4  1  0  0  0  0
 14 11  1  0  0  0  0
M  END
$$$$
Title Card Required
 OpenBabel06272217483D

 14 13  0  0  0  0  0  0  0  0999 V2000
   -1.8513   -1.5135    0.8484 C   0  0  0  0  0  0  0  0  0  0  0  0
   -1.0480   -2.0459    1.4065 H   0  0  0  0  0  0  0  0  0  0  0  0
   -2.5237   -2.3965    0.6991 H   0  0  0  0  0  0  0  0  0  0  0  0
   -1.6269   -1.2129   -0.6071 C   0  0  0  0  0  0  0  0  0  0  0  0
   -1.7466   -2.1125   -1.3599 H   0  0  0  0  0  0  0  0  0  0  0  0
   -0.4942   -0.9469   -0.8515 H   0  0  0  0  0  0  0  0  0  0  0  0
    1.9286    0.3908   -0.2044 Br  0  0  0  0  0 15  0  0  0  0  0  0
   -2.1060   -0.1093    1.4932 C   0  0  0  0  0  0  0  0  0  0  0  0
   -1.1295    0.2132    2.1686 H   0  0  0  0  0  0  0  0  0  0  0  0
   -2.7238   -0.3043    2.2793 H   0  0  0  0  0  0  0  0  0  0  0  0
   -2.5617    0.8257    0.3770 C   0  0  0  0  0  0  0  0  0  0  0  0
   -2.0131    1.7244    0.0622 H   0  0  0  0  0  0  0  0  0  0  0  0
   -3.6160    0.9648    0.5766 H   0  0  0  0  0  0  0  0  0  0  0  0
   -2.4406   -0.1112   -0.8896 O   0  0  0  0  0  0  0  0  0  0  0  0
  1  2  1  0  0  0  0
  1  8  1  0  0  0  0
  3  1  1  0  0  0  0
  4  1  1  0  0  0  0
  5  4  1  0  0  0  0
  6  4  1  0  0  0  0
  8  9  1  0  0  0  0
  8 10  1  0  0  0  0
 11 13  1  0  0  0  0
 11  8  1  0  0  0  0
 12 11  1  0  0  0  0
 14  4  1  0  0  0  0
 14 11  1  0  0  0  0
M  END
$$$$
Title Card Required
 OpenBabel06272217483D

 14 13  0  0  0  0  0  0  0  0999 V2000
   -1.8676   -1.5403    0.8539 C   0  0  0  0  0  0  0  0  0  0  0  0
   -1.0235   -2.0439    1.4505 H   0  0  0  0  0  0  0  0  0  0  0  0
   -2.5366   -2.3842    0.6910 H   0  0  0  0  0  0  0  0  0  0  0  0
   -1.6362   -1.2245   -0.6379 C   0  0  0  0  0  0  0  0  0  0  0  0
   -1.7063   -2.0927   -1.3620 H   0  0  0  0  0  0  0  0  0  0  0  0
   -0.5085   -0.9207   -0.7764 H   0  0  0  0  0  0  0  0  0  0  0  0
    1.9331    0.3926   -0.2047 Br  0  0  0  0  0 15  0  0  0  0  0  0
   -2.1057   -0.0844    1.4814 C   0  0  0  0  0  0  0  0  0  0  0  0
   -1.1775    0.2063    2.1731 H   0  0  0  0  0  0  0  0  0  0  0  0
   -2.7010   -0.3227    2.2675 H   0  0  0  0  0  0  0  0  0  0  0  0
   -2.5629    0.8269    0.3930 C   0  0  0  0  0  0  0  0  0  0  0  0
   -2.0306    1.6831   -0.0112 H   0  0  0  0  0  0  0  0  0  0  0  0
   -3.6469    1.0173    0.6183 H   0  0  0  0  0  0  0  0  0  0  0  0
   -2.4408   -0.1140   -0.8768 O   0  0  0  0  0  0  0  0  0  0  0  0
  1  2  1  0  0  0  0
  1  8  1  0  0  0  0
  3  1  1  0  0  0  0
  4  1  1  0  0  0  0
  5  4  1  0  0  0  0
  6  4  1  0  0  0  0
  8  9  1  0  0  0  0
  8 10  1  0  0  0  0
 11 13  1  0  0  0  0
 11  8  1  0  0  0  0
 12 11  1  0  0  0  0
 14  4  1  0  0  0  0
 14 11  1  0  0  0  0
M  END
$$$$
Title Card Required
 OpenBabel06272217483D

 14 13  0  0  0  0  0  0  0  0999 V2000
   -1.8819   -1.5681    0.8591 C   0  0  0  0  0  0  0  0  0  0  0  0
   -1.0053   -2.0315    1.4808 H   0  0  0  0  0  0  0  0  0  0  0  0
   -2.5727   -2.3663    0.7009 H   0  0  0  0  0  0  0  0  0  0  0  0
   -1.6409   -1.2355   -0.6689 C   0  0  0  0  0  0  0  0  0  0  0  0
   -1.6778   -2.0626   -1.3571 H   0  0  0  0  0  0  0  0  0  0  0  0
   -0.5430   -0.8969   -0.6958 H   0  0  0  0  0  0  0  0  0  0  0  0
    1.9378    0.3945   -0.2049 Br  0  0  0  0  0 15  0  0  0  0  0  0
   -2.1008   -0.0604    1.4698 C   0  0  0  0  0  0  0  0  0  0  0  0
   -1.2396    0.1954    2.1485 H   0  0  0  0  0  0  0  0  0  0  0  0
   -2.7188   -0.3394    2.2842 H   0  0  0  0  0  0  0  0  0  0  0  0
   -2.5652    0.8249    0.4064 C   0  0  0  0  0  0  0  0  0  0  0  0
   -2.0425    1.6454   -0.0749 H   0  0  0  0  0  0  0  0  0  0  0  0
   -3.6714    1.0736    0.6495 H   0  0  0  0  0  0  0  0  0  0  0  0
   -2.4426   -0.1156   -0.8629 O   0  0  0  0  0  0  0  0  0  0  0  0
  1  8  1  0  0  0  0
  1  2  1  0  0  0  0
  3  1  1  0  0  0  0
  4  1  1  0  0  0  0
  5  4  1  0  0  0  0
  6  4  1  0  0  0  0
  8  9  1  0  0  0  0
  8 10  1  0  0  0  0
 11 13  1  0  0  0  0
 11  8  1  0  0  0  0
 12 11  1  0  0  0  0
 14  4  1  0  0  0  0
 14 11  1  0  0  0  0
M  END
$$$$
Title Card Required
 OpenBabel06272217483D

 14 13  0  0  0  0  0  0  0  0999 V2000
   -1.8933   -1.5964    0.8640 C   0  0  0  0  0  0  0  0  0  0  0  0
   -1.0014   -2.0086    1.4920 H   0  0  0  0  0  0  0  0  0  0  0  0
   -2.6396   -2.3497    0.7309 H   0  0  0  0  0  0  0  0  0  0  0  0
   -1.6412   -1.2443   -0.6976 C   0  0  0  0  0  0  0  0  0  0  0  0
   -1.6641   -2.0369   -1.3615 H   0  0  0  0  0  0  0  0  0  0  0  0
   -0.5925   -0.8761   -0.6152 H   0  0  0  0  0  0  0  0  0  0  0  0
    1.9427    0.3966   -0.2052 Br  0  0  0  0  0 15  0  0  0  0  0  0
   -2.0930   -0.0390    1.4598 C   0  0  0  0  0  0  0  0  0  0  0  0
   -1.2999    0.1861    2.1010 H   0  0  0  0  0  0  0  0  0  0  0  0
   -2.7686   -0.3486    2.3136 H   0  0  0  0  0  0  0  0  0  0  0  0
   -2.5699    0.8202    0.4166 C   0  0  0  0  0  0  0  0  0  0  0  0
   -2.0464    1.6144   -0.1255 H   0  0  0  0  0  0  0  0  0  0  0  0
   -3.6780    1.1299    0.6666 H   0  0  0  0  0  0  0  0  0  0  0  0
   -2.4466   -0.1160   -0.8479 O   0  0  0  0  0  0  0  0  0  0  0  0
  1  8  1  0  0  0  0
  1  2  1  0  0  0  0
  3  1  1  0  0  0  0
  4  6  1  0  0  0  0
  4  1  1  0  0  0  0
  5  4  1  0  0  0  0
  8  9  1  0  0  0  0
  8 10  1  0  0  0  0
 11 13  1  0  0  0  0
 11  8  1  0  0  0  0
 12 11  1  0  0  0  0
 14  4  1  0  0  0  0
 14 11  1  0  0  0  0
M  END
$$$$
Title Card Required
 OpenBabel06272217483D

 14 13  0  0  0  0  0  0  0  0999 V2000
   -1.9019   -1.6253    0.8679 C   0  0  0  0  0  0  0  0  0  0  0  0
   -1.0178   -1.9776    1.4799 H   0  0  0  0  0  0  0  0  0  0  0  0
   -2.7417   -2.3338    0.7871 H   0  0  0  0  0  0  0  0  0  0  0  0
   -1.6373   -1.2491   -0.7208 C   0  0  0  0  0  0  0  0  0  0  0  0
   -1.6682   -2.0348   -1.3971 H   0  0  0  0  0  0  0  0  0  0  0  0
   -0.6456   -0.8577   -0.5400 H   0  0  0  0  0  0  0  0  0  0  0  0
    1.9482    0.3988   -0.2055 Br  0  0  0  0  0 15  0  0  0  0  0  0
   -2.0862   -0.0232    1.4524 C   0  0  0  0  0  0  0  0  0  0  0  0
   -1.3230    0.1897    2.0504 H   0  0  0  0  0  0  0  0  0  0  0  0
   -2.8352   -0.3397    2.3313 H   0  0  0  0  0  0  0  0  0  0  0  0
   -2.5782    0.8133    0.4219 C   0  0  0  0  0  0  0  0  0  0  0  0
   -2.0406    1.5905   -0.1558 H   0  0  0  0  0  0  0  0  0  0  0  0
   -3.6573    1.1817    0.6652 H   0  0  0  0  0  0  0  0  0  0  0  0
   -2.4539   -0.1152   -0.8316 O   0  0  0  0  0  0  0  0  0  0  0  0
  1  8  1  0  0  0  0
  1  2  1  0  0  0  0
  3  1  1  0  0  0  0
  4  6  1  0  0  0  0
  4  1  1  0  0  0  0
  5  4  1  0  0  0  0
  8  9  1  0  0  0  0
  8 10  1  0  0  0  0
 11 13  1  0  0  0  0
 11  8  1  0  0  0  0
 12 11  1  0  0  0  0
 14  4  1  0  0  0  0
 14 11  1  0  0  0  0
M  END
$$$$
Title Card Required
 OpenBabel06272217483D

 14 13  0  0  0  0  0  0  0  0999 V2000
   -1.9087   -1.6518    0.8695 C   0  0  0  0  0  0  0  0  0  0  0  0
   -1.0483   -1.9512    1.4494 H   0  0  0  0  0  0  0  0  0  0  0  0
   -2.8542   -2.3086    0.8683 H   0  0  0  0  0  0  0  0  0  0  0  0
   -1.6312   -1.2491   -0.7337 C   0  0  0  0  0  0  0  0  0  0  0  0
   -1.6897   -2.0568   -1.4659 H   0  0  0  0  0  0  0  0  0  0  0  0
   -0.6765   -0.8417   -0.4849 H   0  0  0  0  0  0  0  0  0  0  0  0
    1.9538    0.4011   -0.2058 Br  0  0  0  0  0 15  0  0  0  0  0  0
   -2.0854   -0.0177    1.4490 C   0  0  0  0  0  0  0  0  0  0  0  0
   -1.2686    0.2173    2.0282 H   0  0  0  0  0  0  0  0  0  0  0  0
   -2.8932   -0.3048    2.3163 H   0  0  0  0  0  0  0  0  0  0  0  0
   -2.5890    0.8057    0.4192 C   0  0  0  0  0  0  0  0  0  0  0  0
   -2.0254    1.5756   -0.1529 H   0  0  0  0  0  0  0  0  0  0  0  0
   -3.6114    1.2188    0.6433 H   0  0  0  0  0  0  0  0  0  0  0  0
   -2.4648   -0.1134   -0.8160 O   0  0  0  0  0  0  0  0  0  0  0  0
  1  8  1  0  0  0  0
  1  2  1  0  0  0  0
  3  1  1  0  0  0  0
  4  6  1  0  0  0  0
  4  1  1  0  0  0  0
  5  4  1  0  0  0  0
  8  9  1  0  0  0  0
  8 10  1  0  0  0  0
 11 13  1  0  0  0  0
 11  8  1  0  0  0  0
 12 11  1  0  0  0  0
 14  4  1  0  0  0  0
 14 11  1  0  0  0  0
M  END
$$$$
Title Card Required
 OpenBabel06272217483D

 14 13  0  0  0  0  0  0  0  0999 V2000
   -1.9171   -1.6734    0.8676 C   0  0  0  0  0  0  0  0  0  0  0  0
   -1.0713   -1.9440    1.4193 H   0  0  0  0  0  0  0  0  0  0  0  0
   -2.9417   -2.2665    0.9616 H   0  0  0  0  0  0  0  0  0  0  0  0
   -1.6256   -1.2467   -0.7367 C   0  0  0  0  0  0  0  0  0  0  0  0
   -1.7201   -2.0728   -1.5378 H   0  0  0  0  0  0  0  0  0  0  0  0
   -0.6716   -0.8285   -0.4574 H   0  0  0  0  0  0  0  0  0  0  0  0
    1.9591    0.4033   -0.2060 Br  0  0  0  0  0 15  0  0  0  0  0  0
   -2.0892   -0.0222    1.4516 C   0  0  0  0  0  0  0  0  0  0  0  0
   -1.1687    0.2590    2.0219 H   0  0  0  0  0  0  0  0  0  0  0  0
   -2.9249   -0.2485    2.2695 H   0  0  0  0  0  0  0  0  0  0  0  0
   -2.5995    0.7985    0.4084 C   0  0  0  0  0  0  0  0  0  0  0  0
   -2.0027    1.5696   -0.1163 H   0  0  0  0  0  0  0  0  0  0  0  0
   -3.5623    1.2397    0.6075 H   0  0  0  0  0  0  0  0  0  0  0  0
   -2.4785   -0.1111   -0.8028 O   0  0  0  0  0  0  0  0  0  0  0  0
  1  3  1  0  0  0  0
  1  2  1  0  0  0  0
  1  8  1  0  0  0  0
  4  6  1  0  0  0  0
  4  1  1  0  0  0  0
  5  4  1  0  0  0  0
  8  9  1  0  0  0  0
  8 10  1  0  0  0  0
 11 13  1  0  0  0  0
 11  8  1  0  0  0  0
 12 11  1  0  0  0  0
 14  4  1  0  0  0  0
 14 11  1  0  0  0  0
M  END
$$$$
Title Card Required
 OpenBabel06272217483D

 14 13  0  0  0  0  0  0  0  0999 V2000
   -1.9297   -1.6898    0.8622 C   0  0  0  0  0  0  0  0  0  0  0  0
   -1.0715   -1.9624    1.4027 H   0  0  0  0  0  0  0  0  0  0  0  0
   -2.9901   -2.2080    1.0569 H   0  0  0  0  0  0  0  0  0  0  0  0
   -1.6214   -1.2436   -0.7323 C   0  0  0  0  0  0  0  0  0  0  0  0
   -1.7521   -2.0610   -1.5898 H   0  0  0  0  0  0  0  0  0  0  0  0
   -0.6394   -0.8206   -0.4569 H   0  0  0  0  0  0  0  0  0  0  0  0
    1.9642    0.4054   -0.2062 Br  0  0  0  0  0 15  0  0  0  0  0  0
   -2.0937   -0.0337    1.4606 C   0  0  0  0  0  0  0  0  0  0  0  0
   -1.0761    0.2987    2.0034 H   0  0  0  0  0  0  0  0  0  0  0  0
   -2.9303   -0.1788    2.2038 H   0  0  0  0  0  0  0  0  0  0  0  0
   -2.6069    0.7907    0.3905 C   0  0  0  0  0  0  0  0  0  0  0  0
   -1.9727    1.5721   -0.0533 H   0  0  0  0  0  0  0  0  0  0  0  0
   -3.5340    1.2524    0.5647 H   0  0  0  0  0  0  0  0  0  0  0  0
   -2.4946   -0.1088   -0.7920 O   0  0  0  0  0  0  0  0  0  0  0  0
  1  3  1  0  0  0  0
  1  2  1  0  0  0  0
  1  8  1  0  0  0  0
  4  6  1  0  0  0  0
  4  1  1  0  0  0  0
  5  4  1  0  0  0  0
  8  9  1  0  0  0  0
  8 10  1  0  0  0  0
 11 13  1  0  0  0  0
 11  8  1  0  0  0  0
 12 11  1  0  0  0  0
 14  4  1  0  0  0  0
 14 11  1  0  0  0  0
M  END
$$$$
Title Card Required
 OpenBabel06272217483D

 14 13  0  0  0  0  0  0  0  0999 V2000
   -1.9456   -1.7008    0.8547 C   0  0  0  0  0  0  0  0  0  0  0  0
   -1.0543   -2.0022    1.3982 H   0  0  0  0  0  0  0  0  0  0  0  0
   -2.9982   -2.1414    1.1429 H   0  0  0  0  0  0  0  0  0  0  0  0
   -1.6188   -1.2402   -0.7226 C   0  0  0  0  0  0  0  0  0  0  0  0
   -1.7806   -2.0180   -1.6120 H   0  0  0  0  0  0  0  0  0  0  0  0
   -0.5965   -0.8217   -0.4810 H   0  0  0  0  0  0  0  0  0  0  0  0
    1.9690    0.4074   -0.2064 Br  0  0  0  0  0 15  0  0  0  0  0  0
   -2.0961   -0.0490    1.4737 C   0  0  0  0  0  0  0  0  0  0  0  0
   -1.0209    0.3258    1.9645 H   0  0  0  0  0  0  0  0  0  0  0  0
   -2.9206   -0.1071    2.1419 H   0  0  0  0  0  0  0  0  0  0  0  0
   -2.6095    0.7818    0.3677 C   0  0  0  0  0  0  0  0  0  0  0  0
   -1.9369    1.5822    0.0258 H   0  0  0  0  0  0  0  0  0  0  0  0
   -3.5394    1.2632    0.5209 H   0  0  0  0  0  0  0  0  0  0  0  0
   -2.5121   -0.1067   -0.7837 O   0  0  0  0  0  0  0  0  0  0  0  0
  1  3  1  0  0  0  0
  1  2  1  0  0  0  0
  1  8  1  0  0  0  0
  4  6  1  0  0  0  0
  4  1  1  0  0  0  0
  5  4  1  0  0  0  0
  8  9  1  0  0  0  0
  8 10  1  0  0  0  0
 11 13  1  0  0  0  0
 11  8  1  0  0  0  0
 12 11  1  0  0  0  0
 14  4  1  0  0  0  0
 14 11  1  0  0  0  0
M  END
$$$$
Title Card Required
 OpenBabel06272217483D

 14 13  0  0  0  0  0  0  0  0999 V2000
   -1.9624   -1.7069    0.8469 C   0  0  0  0  0  0  0  0  0  0  0  0
   -1.0378   -2.0532    1.3954 H   0  0  0  0  0  0  0  0  0  0  0  0
   -2.9763   -2.0763    1.2130 H   0  0  0  0  0  0  0  0  0  0  0  0
   -1.6178   -1.2363   -0.7089 C   0  0  0  0  0  0  0  0  0  0  0  0
   -1.8038   -1.9517   -1.6066 H   0  0  0  0  0  0  0  0  0  0  0  0
   -0.5574   -0.8326   -0.5238 H   0  0  0  0  0  0  0  0  0  0  0  0
    1.9735    0.4093   -0.2065 Br  0  0  0  0  0 15  0  0  0  0  0  0
   -2.0948   -0.0658    1.4874 C   0  0  0  0  0  0  0  0  0  0  0  0
   -1.0079    0.3372    1.9101 H   0  0  0  0  0  0  0  0  0  0  0  0
   -2.9156   -0.0414    2.1068 H   0  0  0  0  0  0  0  0  0  0  0  0
   -2.6074    0.7719    0.3424 C   0  0  0  0  0  0  0  0  0  0  0  0
   -1.8989    1.5961    0.1110 H   0  0  0  0  0  0  0  0  0  0  0  0
   -3.5696    1.2710    0.4774 H   0  0  0  0  0  0  0  0  0  0  0  0
   -2.5301   -0.1049   -0.7777 O   0  0  0  0  0  0  0  0  0  0  0  0
  1  3  1  0  0  0  0
  1  2  1  0  0  0  0
  1  8  1  0  0  0  0
  4  6  1  0  0  0  0
  4  1  1  0  0  0  0
  5  4  1  0  0  0  0
  8  9  1  0  0  0  0
  8 10  1  0  0  0  0
 11 13  1  0  0  0  0
 11  8  1  0  0  0  0
 12 11  1  0  0  0  0
 14  4  1  0  0  0  0
 14 11  1  0  0  0  0
M  END
$$$$
Title Card Required
 OpenBabel06272217483D

 14 13  0  0  0  0  0  0  0  0999 V2000
   -1.9776   -1.7088    0.8402 C   0  0  0  0  0  0  0  0  0  0  0  0
   -1.0355   -2.1068    1.3865 H   0  0  0  0  0  0  0  0  0  0  0  0
   -2.9397   -2.0201    1.2667 H   0  0  0  0  0  0  0  0  0  0  0  0
   -1.6179   -1.2315   -0.6923 C   0  0  0  0  0  0  0  0  0  0  0  0
   -1.8224   -1.8736   -1.5819 H   0  0  0  0  0  0  0  0  0  0  0  0
   -0.5300   -0.8520   -0.5784 H   0  0  0  0  0  0  0  0  0  0  0  0
    1.9778    0.4111   -0.2066 Br  0  0  0  0  0 15  0  0  0  0  0  0
   -2.0898   -0.0832    1.4993 C   0  0  0  0  0  0  0  0  0  0  0  0
   -1.0307    0.3338    1.8473 H   0  0  0  0  0  0  0  0  0  0  0  0
   -2.9269    0.0166    2.1081 H   0  0  0  0  0  0  0  0  0  0  0  0
   -2.6022    0.7618    0.3164 C   0  0  0  0  0  0  0  0  0  0  0  0
   -1.8635    1.6090    0.1958 H   0  0  0  0  0  0  0  0  0  0  0  0
   -3.6068    1.2709    0.4338 H   0  0  0  0  0  0  0  0  0  0  0  0
   -2.5479   -0.1034   -0.7737 O   0  0  0  0  0  0  0  0  0  0  0  0
  1  3  1  0  0  0  0
  1  2  1  0  0  0  0
  1  8  1  0  0  0  0
  4  6  1  0  0  0  0
  4  1  1  0  0  0  0
  5  4  1  0  0  0  0
  8  9  1  0  0  0  0
  8 10  1  0  0  0  0
 11 13  1  0  0  0  0
 11  8  1  0  0  0  0
 12 11  1  0  0  0  0
 14  4  1  0  0  0  0
 14 11  1  0  0  0  0
M  END
$$$$
Title Card Required
 OpenBabel06272217483D

 14 13  0  0  0  0  0  0  0  0999 V2000
   -1.9900   -1.7069    0.8348 C   0  0  0  0  0  0  0  0  0  0  0  0
   -1.0526   -2.1583    1.3678 H   0  0  0  0  0  0  0  0  0  0  0  0
   -2.9039   -1.9775    1.3071 H   0  0  0  0  0  0  0  0  0  0  0  0
   -1.6191   -1.2251   -0.6729 C   0  0  0  0  0  0  0  0  0  0  0  0
   -1.8393   -1.7949   -1.5494 H   0  0  0  0  0  0  0  0  0  0  0  0
   -0.5170   -0.8776   -0.6392 H   0  0  0  0  0  0  0  0  0  0  0  0
    1.9819    0.4128   -0.2067 Br  0  0  0  0  0 15  0  0  0  0  0  0
   -2.0821   -0.1010    1.5090 C   0  0  0  0  0  0  0  0  0  0  0  0
   -1.0786    0.3185    1.7820 H   0  0  0  0  0  0  0  0  0  0  0  0
   -2.9491    0.0677    2.1398 H   0  0  0  0  0  0  0  0  0  0  0  0
   -2.5948    0.7523    0.2907 C   0  0  0  0  0  0  0  0  0  0  0  0
   -1.8347    1.6168    0.2762 H   0  0  0  0  0  0  0  0  0  0  0  0
   -3.6375    1.2596    0.3893 H   0  0  0  0  0  0  0  0  0  0  0  0
   -2.5656   -0.1024   -0.7715 O   0  0  0  0  0  0  0  0  0  0  0  0
  1  3  1  0  0  0  0
  1  2  1  0  0  0  0
  1  8  1  0  0  0  0
  4  6  1  0  0  0  0
  4  1  1  0  0  0  0
  5  4  1  0  0  0  0
  8  9  1  0  0  0  0
  8 10  1  0  0  0  0
 11 13  1  0  0  0  0
 11  8  1  0  0  0  0
 12 11  1  0  0  0  0
 14  4  1  0  0  0  0
 14 11  1  0  0  0  0
M  END
$$$$
Title Card Required
 OpenBabel06272217483D

 14 13  0  0  0  0  0  0  0  0999 V2000
   -1.9988   -1.7012    0.8305 C   0  0  0  0  0  0  0  0  0  0  0  0
   -1.0910   -2.2065    1.3375 H   0  0  0  0  0  0  0  0  0  0  0  0
   -2.8823   -1.9521    1.3385 H   0  0  0  0  0  0  0  0  0  0  0  0
   -1.6215   -1.2163   -0.6494 C   0  0  0  0  0  0  0  0  0  0  0  0
   -1.8593   -1.7259   -1.5218 H   0  0  0  0  0  0  0  0  0  0  0  0
   -0.5191   -0.9080   -0.7031 H   0  0  0  0  0  0  0  0  0  0  0  0
    1.9860    0.4146   -0.2068 Br  0  0  0  0  0 15  0  0  0  0  0  0
   -2.0743   -0.1202    1.5168 C   0  0  0  0  0  0  0  0  0  0  0  0
   -1.1363    0.2960    1.7190 H   0  0  0  0  0  0  0  0  0  0  0  0
   -2.9674    0.1120    2.1909 H   0  0  0  0  0  0  0  0  0  0  0  0
   -2.5858    0.7435    0.2654 C   0  0  0  0  0  0  0  0  0  0  0  0
   -1.8153    1.6158    0.3497 H   0  0  0  0  0  0  0  0  0  0  0  0
   -3.6537    1.2347    0.3427 H   0  0  0  0  0  0  0  0  0  0  0  0
   -2.5834   -0.1018   -0.7712 O   0  0  0  0  0  0  0  0  0  0  0  0
  1  2  1  0  0  0  0
  1  3  1  0  0  0  0
  1  8  1  0  0  0  0
  4  1  1  0  0  0  0
  5  4  1  0  0  0  0
  6  4  1  0  0  0  0
  8  9  1  0  0  0  0
  8 10  1  0  0  0  0
 11 13  1  0  0  0  0
 11 12  1  0  0  0  0
 11  8  1  0  0  0  0
 14  4  1  0  0  0  0
 14 11  1  0  0  0  0
M  END
$$$$
Title Card Required
 OpenBabel06272217483D

 14 13  0  0  0  0  0  0  0  0999 V2000
   -2.0033   -1.6907    0.8275 C   0  0  0  0  0  0  0  0  0  0  0  0
   -1.1508   -2.2511    1.2949 H   0  0  0  0  0  0  0  0  0  0  0  0
   -2.8861   -1.9483    1.3613 H   0  0  0  0  0  0  0  0  0  0  0  0
   -1.6257   -1.2039   -0.6205 C   0  0  0  0  0  0  0  0  0  0  0  0
   -1.8880   -1.6786   -1.5115 H   0  0  0  0  0  0  0  0  0  0  0  0
   -0.5366   -0.9406   -0.7660 H   0  0  0  0  0  0  0  0  0  0  0  0
    1.9905    0.4165   -0.2069 Br  0  0  0  0  0 15  0  0  0  0  0  0
   -2.0699   -0.1421    1.5228 C   0  0  0  0  0  0  0  0  0  0  0  0
   -1.1747    0.2766    1.6660 H   0  0  0  0  0  0  0  0  0  0  0  0
   -2.9645    0.1455    2.2509 H   0  0  0  0  0  0  0  0  0  0  0  0
   -2.5754    0.7359    0.2412 C   0  0  0  0  0  0  0  0  0  0  0  0
   -1.8083    1.6026    0.4113 H   0  0  0  0  0  0  0  0  0  0  0  0
   -3.6489    1.1946    0.2941 H   0  0  0  0  0  0  0  0  0  0  0  0
   -2.6017   -0.1021   -0.7732 O   0  0  0  0  0  0  0  0  0  0  0  0
  1  2  1  0  0  0  0
  1  3  1  0  0  0  0
  1  8  1  0  0  0  0
  4  1  1  0  0  0  0
  5  4  1  0  0  0  0
  6  4  1  0  0  0  0
  8  9  1  0  0  0  0
  8 10  1  0  0  0  0
 11 13  1  0  0  0  0
 11 12  1  0  0  0  0
 11  8  1  0  0  0  0
 14  4  1  0  0  0  0
 14 11  1  0  0  0  0
M  END
$$$$
Title Card Required
 OpenBabel06272217483D

 14 13  0  0  0  0  0  0  0  0999 V2000
   -2.0041   -1.6752    0.8265 C   0  0  0  0  0  0  0  0  0  0  0  0
   -1.2212   -2.2918    1.2458 H   0  0  0  0  0  0  0  0  0  0  0  0
   -2.9165   -1.9678    1.3662 H   0  0  0  0  0  0  0  0  0  0  0  0
   -1.6327   -1.1887   -0.5884 C   0  0  0  0  0  0  0  0  0  0  0  0
   -1.9259   -1.6629   -1.5195 H   0  0  0  0  0  0  0  0  0  0  0  0
   -0.5652   -0.9687   -0.8180 H   0  0  0  0  0  0  0  0  0  0  0  0
    1.9952    0.4185   -0.2069 Br  0  0  0  0  0 15  0  0  0  0  0  0
   -2.0729   -0.1667    1.5264 C   0  0  0  0  0  0  0  0  0  0  0  0
   -1.1582    0.2742    1.6339 H   0  0  0  0  0  0  0  0  0  0  0  0
   -2.9265    0.1597    2.3063 H   0  0  0  0  0  0  0  0  0  0  0  0
   -2.5646    0.7305    0.2212 C   0  0  0  0  0  0  0  0  0  0  0  0
   -1.8157    1.5762    0.4486 H   0  0  0  0  0  0  0  0  0  0  0  0
   -3.6207    1.1440    0.2493 H   0  0  0  0  0  0  0  0  0  0  0  0
   -2.6189   -0.1037   -0.7784 O   0  0  0  0  0  0  0  0  0  0  0  0
  1  2  1  0  0  0  0
  1  3  1  0  0  0  0
  1  8  1  0  0  0  0
  4  1  1  0  0  0  0
  5  4  1  0  0  0  0
  6  4  1  0  0  0  0
  8  9  1  0  0  0  0
  8 10  1  0  0  0  0
 11 13  1  0  0  0  0
 11 12  1  0  0  0  0
 11  8  1  0  0  0  0
 14  4  1  0  0  0  0
 14 11  1  0  0  0  0
M  END
$$$$
Title Card Required
 OpenBabel06272217483D

 14 13  0  0  0  0  0  0  0  0999 V2000
   -2.0038   -1.6558    0.8286 C   0  0  0  0  0  0  0  0  0  0  0  0
   -1.2815   -2.3327    1.2018 H   0  0  0  0  0  0  0  0  0  0  0  0
   -2.9591   -2.0037    1.3412 H   0  0  0  0  0  0  0  0  0  0  0  0
   -1.6436   -1.1730   -0.5583 C   0  0  0  0  0  0  0  0  0  0  0  0
   -1.9656   -1.6753   -1.5266 H   0  0  0  0  0  0  0  0  0  0  0  0
   -0.5957   -0.9856   -0.8505 H   0  0  0  0  0  0  0  0  0  0  0  0
    1.9998    0.4204   -0.2070 Br  0  0  0  0  0 15  0  0  0  0  0  0
   -2.0818   -0.1915    1.5277 C   0  0  0  0  0  0  0  0  0  0  0  0
   -1.0970    0.2828    1.6229 H   0  0  0  0  0  0  0  0  0  0  0  0
   -2.8540    0.1496    2.3472 H   0  0  0  0  0  0  0  0  0  0  0  0
   -2.5547    0.7276    0.2081 C   0  0  0  0  0  0  0  0  0  0  0  0
   -1.8324    1.5428    0.4535 H   0  0  0  0  0  0  0  0  0  0  0  0
   -3.5801    1.0949    0.2164 H   0  0  0  0  0  0  0  0  0  0  0  0
   -2.6335   -0.1069   -0.7867 O   0  0  0  0  0  0  0  0  0  0  0  0
  1  2  1  0  0  0  0
  1  3  1  0  0  0  0
  1  8  1  0  0  0  0
  4  1  1  0  0  0  0
  5  4  1  0  0  0  0
  6  4  1  0  0  0  0
  8  9  1  0  0  0  0
  8 10  1  0  0  0  0
 11 13  1  0  0  0  0
 11 12  1  0  0  0  0
 11  8  1  0  0  0  0
 14  4  1  0  0  0  0
 14 11  1  0  0  0  0
M  END
$$$$
Title Card Required
 OpenBabel06272217483D

 14 13  0  0  0  0  0  0  0  0999 V2000
   -2.0048   -1.6331    0.8343 C   0  0  0  0  0  0  0  0  0  0  0  0
   -1.3202   -2.3797    1.1694 H   0  0  0  0  0  0  0  0  0  0  0  0
   -2.9997   -2.0472    1.2792 H   0  0  0  0  0  0  0  0  0  0  0  0
   -1.6590   -1.1582   -0.5333 C   0  0  0  0  0  0  0  0  0  0  0  0
   -2.0001   -1.7071   -1.5133 H   0  0  0  0  0  0  0  0  0  0  0  0
   -0.6225   -0.9884   -0.8621 H   0  0  0  0  0  0  0  0  0  0  0  0
    2.0043    0.4224   -0.2070 Br  0  0  0  0  0 15  0  0  0  0  0  0
   -2.0922   -0.2144    1.5274 C   0  0  0  0  0  0  0  0  0  0  0  0
   -1.0311    0.2826    1.6262 H   0  0  0  0  0  0  0  0  0  0  0  0
   -2.7567    0.1158    2.3744 H   0  0  0  0  0  0  0  0  0  0  0  0
   -2.5459    0.7260    0.2021 C   0  0  0  0  0  0  0  0  0  0  0  0
   -1.8478    1.5122    0.4262 H   0  0  0  0  0  0  0  0  0  0  0  0
   -3.5465    1.0597    0.2002 H   0  0  0  0  0  0  0  0  0  0  0  0
   -2.6449   -0.1121   -0.7980 O   0  0  0  0  0  0  0  0  0  0  0  0
  1  2  1  0  0  0  0
  1  3  1  0  0  0  0
  1  8  1  0  0  0  0
  4  1  1  0  0  0  0
  5  4  1  0  0  0  0
  6  4  1  0  0  0  0
  8  9  1  0  0  0  0
  8 10  1  0  0  0  0
 11 12  1  0  0  0  0
 11  8  1  0  0  0  0
 13 11  1  0  0  0  0
 14  4  1  0  0  0  0
 14 11  1  0  0  0  0
M  END
$$$$
Title Card Required
 OpenBabel06272217483D

 14 13  0  0  0  0  0  0  0  0999 V2000
   -2.0084   -1.6092    0.8437 C   0  0  0  0  0  0  0  0  0  0  0  0
   -1.3385   -2.4274    1.1491 H   0  0  0  0  0  0  0  0  0  0  0  0
   -3.0284   -2.0888    1.1823 H   0  0  0  0  0  0  0  0  0  0  0  0
   -1.6787   -1.1457   -0.5158 C   0  0  0  0  0  0  0  0  0  0  0  0
   -2.0240   -1.7513   -1.4706 H   0  0  0  0  0  0  0  0  0  0  0  0
   -0.6432   -0.9765   -0.8531 H   0  0  0  0  0  0  0  0  0  0  0  0
    2.0088    0.4243   -0.2071 Br  0  0  0  0  0 15  0  0  0  0  0  0
   -2.0999   -0.2337    1.5252 C   0  0  0  0  0  0  0  0  0  0  0  0
   -0.9899    0.2606    1.6374 H   0  0  0  0  0  0  0  0  0  0  0  0
   -2.6529    0.0641    2.3967 H   0  0  0  0  0  0  0  0  0  0  0  0
   -2.5386    0.7240    0.2027 C   0  0  0  0  0  0  0  0  0  0  0  0
   -1.8487    1.4973    0.3723 H   0  0  0  0  0  0  0  0  0  0  0  0
   -3.5375    1.0480    0.2038 H   0  0  0  0  0  0  0  0  0  0  0  0
   -2.6529   -0.1189   -0.8116 O   0  0  0  0  0  0  0  0  0  0  0  0
  1  2  1  0  0  0  0
  1  3  1  0  0  0  0
  1  8  1  0  0  0  0
  4  1  1  0  0  0  0
  5  4  1  0  0  0  0
  6  4  1  0  0  0  0
  8  9  1  0  0  0  0
  8 10  1  0  0  0  0
 11 13  1  0  0  0  0
 11 12  1  0  0  0  0
 11  8  1  0  0  0  0
 14  4  1  0  0  0  0
 14 11  1  0  0  0  0
M  END
$$$$
Title Card Required
 OpenBabel06272217483D

 14 13  0  0  0  0  0  0  0  0999 V2000
   -2.0138   -1.5877    0.8558 C   0  0  0  0  0  0  0  0  0  0  0  0
   -1.3458   -2.4622    1.1374 H   0  0  0  0  0  0  0  0  0  0  0  0
   -3.0402   -2.1203    1.0646 H   0  0  0  0  0  0  0  0  0  0  0  0
   -1.7006   -1.1365   -0.5068 C   0  0  0  0  0  0  0  0  0  0  0  0
   -2.0353   -1.8007   -1.4029 H   0  0  0  0  0  0  0  0  0  0  0  0
   -0.6580   -0.9527   -0.8271 H   0  0  0  0  0  0  0  0  0  0  0  0
    2.0129    0.4261   -0.2071 Br  0  0  0  0  0 15  0  0  0  0  0  0
   -2.1027   -0.2482    1.5209 C   0  0  0  0  0  0  0  0  0  0  0  0
   -0.9815    0.2176    1.6510 H   0  0  0  0  0  0  0  0  0  0  0  0
   -2.5641    0.0058    2.4276 H   0  0  0  0  0  0  0  0  0  0  0  0
   -2.5338    0.7209    0.2084 C   0  0  0  0  0  0  0  0  0  0  0  0
   -1.8291    1.5036    0.3024 H   0  0  0  0  0  0  0  0  0  0  0  0
   -3.5529    1.0599    0.2250 H   0  0  0  0  0  0  0  0  0  0  0  0
   -2.6577   -0.1263   -0.8259 O   0  0  0  0  0  0  0  0  0  0  0  0
  1  3  1  0  0  0  0
  1  2  1  0  0  0  0
  1  8  1  0  0  0  0
  4  1  1  0  0  0  0
  5  4  1  0  0  0  0
  6  4  1  0  0  0  0
  8  9  1  0  0  0  0
  8 10  1  0  0  0  0
 11 13  1  0  0  0  0
 11 12  1  0  0  0  0
 11  8  1  0  0  0  0
 14  4  1  0  0  0  0
 14 11  1  0  0  0  0
M  END
$$$$
Title Card Required
 OpenBabel06272217483D

 14 13  0  0  0  0  0  0  0  0999 V2000
   -2.0204   -1.5705    0.8687 C   0  0  0  0  0  0  0  0  0  0  0  0
   -1.3508   -2.4765    1.1310 H   0  0  0  0  0  0  0  0  0  0  0  0
   -3.0374   -2.1385    0.9417 H   0  0  0  0  0  0  0  0  0  0  0  0
   -1.7226   -1.1306   -0.5044 C   0  0  0  0  0  0  0  0  0  0  0  0
   -2.0362   -1.8511   -1.3216 H   0  0  0  0  0  0  0  0  0  0  0  0
   -0.6697   -0.9211   -0.7901 H   0  0  0  0  0  0  0  0  0  0  0  0
    2.0166    0.4277   -0.2071 Br  0  0  0  0  0 15  0  0  0  0  0  0
   -2.1009   -0.2583    1.5150 C   0  0  0  0  0  0  0  0  0  0  0  0
   -0.9986    0.1609    1.6628 H   0  0  0  0  0  0  0  0  0  0  0  0
   -2.4985   -0.0510    2.4723 H   0  0  0  0  0  0  0  0  0  0  0  0
   -2.5317    0.7170    0.2174 C   0  0  0  0  0  0  0  0  0  0  0  0
   -1.7969    1.5224    0.2252 H   0  0  0  0  0  0  0  0  0  0  0  0
   -3.5768    1.0862    0.2579 H   0  0  0  0  0  0  0  0  0  0  0  0
   -2.6601   -0.1335   -0.8395 O   0  0  0  0  0  0  0  0  0  0  0  0
  1  3  1  0  0  0  0
  1  2  1  0  0  0  0
  1  8  1  0  0  0  0
  4  1  1  0  0  0  0
  5  4  1  0  0  0  0
  6  4  1  0  0  0  0
  8  9  1  0  0  0  0
  8 10  1  0  0  0  0
 11 12  1  0  0  0  0
 11 13  1  0  0  0  0
 11  8  1  0  0  0  0
 14  4  1  0  0  0  0
 14 11  1  0  0  0  0
M  END
$$$$
Title Card Required
 OpenBabel06272217483D

 14 13  0  0  0  0  0  0  0  0999 V2000
   -2.0278   -1.5577    0.8815 C   0  0  0  0  0  0  0  0  0  0  0  0
   -1.3570   -2.4702    1.1284 H   0  0  0  0  0  0  0  0  0  0  0  0
   -3.0241   -2.1445    0.8205 H   0  0  0  0  0  0  0  0  0  0  0  0
   -1.7440   -1.1274   -0.5067 C   0  0  0  0  0  0  0  0  0  0  0  0
   -2.0300   -1.9033   -1.2351 H   0  0  0  0  0  0  0  0  0  0  0  0
   -0.6810   -0.8846   -0.7459 H   0  0  0  0  0  0  0  0  0  0  0  0
    2.0201    0.4292   -0.2071 Br  0  0  0  0  0 15  0  0  0  0  0  0
   -2.0960   -0.2647    1.5083 C   0  0  0  0  0  0  0  0  0  0  0  0
   -1.0309    0.0964    1.6713 H   0  0  0  0  0  0  0  0  0  0  0  0
   -2.4511   -0.1060    2.5252 H   0  0  0  0  0  0  0  0  0  0  0  0
   -2.5319    0.7133    0.2283 C   0  0  0  0  0  0  0  0  0  0  0  0
   -1.7629    1.5419    0.1448 H   0  0  0  0  0  0  0  0  0  0  0  0
   -3.5960    1.1190    0.2981 H   0  0  0  0  0  0  0  0  0  0  0  0
   -2.6612   -0.1402   -0.8523 O   0  0  0  0  0  0  0  0  0  0  0  0
  1  2  1  0  0  0  0
  1  8  1  0  0  0  0
  3  1  1  0  0  0  0
  4  1  1  0  0  0  0
  5  4  1  0  0  0  0
  6  4  1  0  0  0  0
  8  9  1  0  0  0  0
  8 10  1  0  0  0  0
 11 13  1  0  0  0  0
 11  8  1  0  0  0  0
 12 11  1  0  0  0  0
 14  4  1  0  0  0  0
 14 11  1  0  0  0  0
M  END
$$$$
Title Card Required
 OpenBabel06272217483D

 14 13  0  0  0  0  0  0  0  0999 V2000
   -2.0361   -1.5488    0.8935 C   0  0  0  0  0  0  0  0  0  0  0  0
   -1.3651   -2.4448    1.1295 H   0  0  0  0  0  0  0  0  0  0  0  0
   -3.0035   -2.1390    0.7032 H   0  0  0  0  0  0  0  0  0  0  0  0
   -1.7648   -1.1263   -0.5121 C   0  0  0  0  0  0  0  0  0  0  0  0
   -2.0189   -1.9609   -1.1485 H   0  0  0  0  0  0  0  0  0  0  0  0
   -0.6946   -0.8439   -0.6961 H   0  0  0  0  0  0  0  0  0  0  0  0
    2.0235    0.4307   -0.2072 Br  0  0  0  0  0 15  0  0  0  0  0  0
   -2.0892   -0.2679    1.5020 C   0  0  0  0  0  0  0  0  0  0  0  0
   -1.0679    0.0272    1.6766 H   0  0  0  0  0  0  0  0  0  0  0  0
   -2.4161   -0.1610    2.5777 H   0  0  0  0  0  0  0  0  0  0  0  0
   -2.5340    0.7104    0.2410 C   0  0  0  0  0  0  0  0  0  0  0  0
   -1.7347    1.5532    0.0628 H   0  0  0  0  0  0  0  0  0  0  0  0
   -3.6034    1.1543    0.3438 H   0  0  0  0  0  0  0  0  0  0  0  0
   -2.6615   -0.1465   -0.8646 O   0  0  0  0  0  0  0  0  0  0  0  0
  1  2  1  0  0  0  0
  1  8  1  0  0  0  0
  3  1  1  0  0  0  0
  4  1  1  0  0  0  0
  5  4  1  0  0  0  0
  6  4  1  0  0  0  0
  8  9  1  0  0  0  0
  8 10  1  0  0  0  0
 11 13  1  0  0  0  0
 11  8  1  0  0  0  0
 12 11  1  0  0  0  0
 14  4  1  0  0  0  0
 14 11  1  0  0  0  0
M  END
$$$$
Title Card Required
 OpenBabel06272217483D

 14 13  0  0  0  0  0  0  0  0999 V2000
   -2.0459   -1.5439    0.9040 C   0  0  0  0  0  0  0  0  0  0  0  0
   -1.3744   -2.4010    1.1356 H   0  0  0  0  0  0  0  0  0  0  0  0
   -2.9784   -2.1222    0.5913 H   0  0  0  0  0  0  0  0  0  0  0  0
   -1.7849   -1.1271   -0.5200 C   0  0  0  0  0  0  0  0  0  0  0  0
   -2.0036   -2.0282   -1.0655 H   0  0  0  0  0  0  0  0  0  0  0  0
   -0.7128   -0.7994   -0.6412 H   0  0  0  0  0  0  0  0  0  0  0  0
    2.0270    0.4322   -0.2071 Br  0  0  0  0  0 15  0  0  0  0  0  0
   -2.0818   -0.2680    1.4971 C   0  0  0  0  0  0  0  0  0  0  0  0
   -1.0944   -0.0430    1.6794 H   0  0  0  0  0  0  0  0  0  0  0  0
   -2.3901   -0.2172    2.6210 H   0  0  0  0  0  0  0  0  0  0  0  0
   -2.5375    0.7088    0.2552 C   0  0  0  0  0  0  0  0  0  0  0  0
   -1.7180    1.5495   -0.0189 H   0  0  0  0  0  0  0  0  0  0  0  0
   -3.5935    1.1895    0.3947 H   0  0  0  0  0  0  0  0  0  0  0  0
   -2.6618   -0.1523   -0.8767 O   0  0  0  0  0  0  0  0  0  0  0  0
  1  2  1  0  0  0  0
  1  8  1  0  0  0  0
  3  1  1  0  0  0  0
  4  1  1  0  0  0  0
  5  4  1  0  0  0  0
  6  4  1  0  0  0  0
  8  9  1  0  0  0  0
  8 10  1  0  0  0  0
 11 13  1  0  0  0  0
 11  8  1  0  0  0  0
 12 11  1  0  0  0  0
 14  4  1  0  0  0  0
 14 11  1  0  0  0  0
M  END
$$$$
Title Card Required
 OpenBabel06272217483D

 14 13  0  0  0  0  0  0  0  0999 V2000
   -2.0583   -1.5432    0.9121 C   0  0  0  0  0  0  0  0  0  0  0  0
   -1.3810   -2.3418    1.1501 H   0  0  0  0  0  0  0  0  0  0  0  0
   -2.9530   -2.0935    0.4909 H   0  0  0  0  0  0  0  0  0  0  0  0
   -1.8038   -1.1301   -0.5299 C   0  0  0  0  0  0  0  0  0  0  0  0
   -1.9831   -2.1068   -0.9903 H   0  0  0  0  0  0  0  0  0  0  0  0
   -0.7383   -0.7525   -0.5826 H   0  0  0  0  0  0  0  0  0  0  0  0
    2.0308    0.4339   -0.2071 Br  0  0  0  0  0 15  0  0  0  0  0  0
   -2.0755   -0.2650    1.4944 C   0  0  0  0  0  0  0  0  0  0  0  0
   -1.0872   -0.1092    1.6821 H   0  0  0  0  0  0  0  0  0  0  0  0
   -2.3728   -0.2734    2.6449 H   0  0  0  0  0  0  0  0  0  0  0  0
   -2.5424    0.7090    0.2712 C   0  0  0  0  0  0  0  0  0  0  0  0
   -1.7193    1.5236   -0.0954 H   0  0  0  0  0  0  0  0  0  0  0  0
   -3.5611    1.2223    0.4503 H   0  0  0  0  0  0  0  0  0  0  0  0
   -2.6626   -0.1577   -0.8887 O   0  0  0  0  0  0  0  0  0  0  0  0
  1  2  1  0  0  0  0
  1  8  1  0  0  0  0
  3  1  1  0  0  0  0
  4  1  1  0  0  0  0
  5  4  1  0  0  0  0
  6  4  1  0  0  0  0
  8  9  1  0  0  0  0
  8 10  1  0  0  0  0
 11 13  1  0  0  0  0
 11  8  1  0  0  0  0
 12 11  1  0  0  0  0
 14  4  1  0  0  0  0
 14 11  1  0  0  0  0
M  END
$$$$
Title Card Required
 OpenBabel06272217483D

 14 13  0  0  0  0  0  0  0  0999 V2000
   -2.0747   -1.5465    0.9157 C   0  0  0  0  0  0  0  0  0  0  0  0
   -1.3757   -2.2788    1.1776 H   0  0  0  0  0  0  0  0  0  0  0  0
   -2.9356   -2.0549    0.4160 H   0  0  0  0  0  0  0  0  0  0  0  0
   -1.8196   -1.1363   -0.5415 C   0  0  0  0  0  0  0  0  0  0  0  0
   -1.9547   -2.1875   -0.9308 H   0  0  0  0  0  0  0  0  0  0  0  0
   -0.7722   -0.7083   -0.5262 H   0  0  0  0  0  0  0  0  0  0  0  0
    2.0350    0.4358   -0.2071 Br  0  0  0  0  0 15  0  0  0  0  0  0
   -2.0714   -0.2584    1.4951 C   0  0  0  0  0  0  0  0  0  0  0  0
   -1.0299   -0.1651    1.6851 H   0  0  0  0  0  0  0  0  0  0  0  0
   -2.3665   -0.3232    2.6383 H   0  0  0  0  0  0  0  0  0  0  0  0
   -2.5480    0.7115    0.2884 C   0  0  0  0  0  0  0  0  0  0  0  0
   -1.7440    1.4704   -0.1562 H   0  0  0  0  0  0  0  0  0  0  0  0
   -3.5054    1.2496    0.5078 H   0  0  0  0  0  0  0  0  0  0  0  0
   -2.6649   -0.1623   -0.9002 O   0  0  0  0  0  0  0  0  0  0  0  0
  1  2  1  0  0  0  0
  1  8  1  0  0  0  0
  3  1  1  0  0  0  0
  4  6  1  0  0  0  0
  4  1  1  0  0  0  0
  5  4  1  0  0  0  0
  8  9  1  0  0  0  0
  8 10  1  0  0  0  0
 11 13  1  0  0  0  0
 11  8  1  0  0  0  0
 12 11  1  0  0  0  0
 14  4  1  0  0  0  0
 14 11  1  0  0  0  0
M  END
$$$$
Title Card Required
 OpenBabel06272217483D

 14 13  0  0  0  0  0  0  0  0999 V2000
   -2.0960   -1.5530    0.9132 C   0  0  0  0  0  0  0  0  0  0  0  0
   -1.3485   -2.2293    1.2223 H   0  0  0  0  0  0  0  0  0  0  0  0
   -2.9392   -2.0134    0.3836 H   0  0  0  0  0  0  0  0  0  0  0  0
   -1.8299   -1.1469   -0.5538 C   0  0  0  0  0  0  0  0  0  0  0  0
   -1.9159   -2.2507   -0.8959 H   0  0  0  0  0  0  0  0  0  0  0  0
   -0.8115   -0.6742   -0.4808 H   0  0  0  0  0  0  0  0  0  0  0  0
    2.0394    0.4378   -0.2070 Br  0  0  0  0  0 15  0  0  0  0  0  0
   -2.0678   -0.2481    1.5003 C   0  0  0  0  0  0  0  0  0  0  0  0
   -0.9412   -0.2073    1.6838 H   0  0  0  0  0  0  0  0  0  0  0  0
   -2.3746   -0.3564    2.5960 H   0  0  0  0  0  0  0  0  0  0  0  0
   -2.5527    0.7155    0.3057 C   0  0  0  0  0  0  0  0  0  0  0  0
   -1.7911    1.3931   -0.1888 H   0  0  0  0  0  0  0  0  0  0  0  0
   -3.4377    1.2723    0.5637 H   0  0  0  0  0  0  0  0  0  0  0  0
   -2.6701   -0.1659   -0.9108 O   0  0  0  0  0  0  0  0  0  0  0  0
  1  2  1  0  0  0  0
  1  8  1  0  0  0  0
  3  1  1  0  0  0  0
  4  6  1  0  0  0  0
  4  1  1  0  0  0  0
  5  4  1  0  0  0  0
  8  9  1  0  0  0  0
  8 10  1  0  0  0  0
 11 13  1  0  0  0  0
 11  8  1  0  0  0  0
 12 11  1  0  0  0  0
 14  4  1  0  0  0  0
 14 11  1  0  0  0  0
M  END
$$$$
Title Card Required
 OpenBabel06272217483D

 14 13  0  0  0  0  0  0  0  0999 V2000
   -2.1215   -1.5614    0.9041 C   0  0  0  0  0  0  0  0  0  0  0  0
   -1.3054   -2.1992    1.2801 H   0  0  0  0  0  0  0  0  0  0  0  0
   -2.9791   -1.9803    0.4047 H   0  0  0  0  0  0  0  0  0  0  0  0
   -1.8331   -1.1628   -0.5658 C   0  0  0  0  0  0  0  0  0  0  0  0
   -1.8670   -2.2764   -0.8942 H   0  0  0  0  0  0  0  0  0  0  0  0
   -0.8488   -0.6578   -0.4553 H   0  0  0  0  0  0  0  0  0  0  0  0
    2.0441    0.4399   -0.2069 Br  0  0  0  0  0 15  0  0  0  0  0  0
   -2.0612   -0.2347    1.5092 C   0  0  0  0  0  0  0  0  0  0  0  0
   -0.8640   -0.2318    1.6717 H   0  0  0  0  0  0  0  0  0  0  0  0
   -2.4023   -0.3632    2.5279 H   0  0  0  0  0  0  0  0  0  0  0  0
   -2.5551    0.7189    0.3226 C   0  0  0  0  0  0  0  0  0  0  0  0
   -1.8433    1.3100   -0.1887 H   0  0  0  0  0  0  0  0  0  0  0  0
   -3.3834    1.2985    0.6174 H   0  0  0  0  0  0  0  0  0  0  0  0
   -2.6793   -0.1686   -0.9199 O   0  0  0  0  0  0  0  0  0  0  0  0
  1  2  1  0  0  0  0
  1  8  1  0  0  0  0
  3  1  1  0  0  0  0
  4  6  1  0  0  0  0
  4  1  1  0  0  0  0
  5  4  1  0  0  0  0
  8  9  1  0  0  0  0
  8 10  1  0  0  0  0
 11 13  1  0  0  0  0
 11  8  1  0  0  0  0
 12 11  1  0  0  0  0
 14  4  1  0  0  0  0
 14 11  1  0  0  0  0
M  END
$$$$
Title Card Required
 OpenBabel06272217483D

 14 13  0  0  0  0  0  0  0  0999 V2000
   -2.1467   -1.5710    0.8902 C   0  0  0  0  0  0  0  0  0  0  0  0
   -1.2761   -2.1808    1.3350 H   0  0  0  0  0  0  0  0  0  0  0  0
   -3.0626   -1.9670    0.4782 H   0  0  0  0  0  0  0  0  0  0  0  0
   -1.8289   -1.1830   -0.5758 C   0  0  0  0  0  0  0  0  0  0  0  0
   -1.8146   -2.2561   -0.9305 H   0  0  0  0  0  0  0  0  0  0  0  0
   -0.8712   -0.6633   -0.4547 H   0  0  0  0  0  0  0  0  0  0  0  0
    2.0489    0.4421   -0.2068 Br  0  0  0  0  0 15  0  0  0  0  0  0
   -2.0487   -0.2201    1.5180 C   0  0  0  0  0  0  0  0  0  0  0  0
   -0.8349   -0.2333    1.6486 H   0  0  0  0  0  0  0  0  0  0  0  0
   -2.4555   -0.3394    2.4693 H   0  0  0  0  0  0  0  0  0  0  0  0
   -2.5557    0.7178    0.3392 C   0  0  0  0  0  0  0  0  0  0  0  0
   -1.8617    1.2586   -0.1693 H   0  0  0  0  0  0  0  0  0  0  0  0
   -3.3655    1.3350    0.6669 H   0  0  0  0  0  0  0  0  0  0  0  0
   -2.6928   -0.1707   -0.9267 O   0  0  0  0  0  0  0  0  0  0  0  0
  1  2  1  0  0  0  0
  1  8  1  0  0  0  0
  3  1  1  0  0  0  0
  4  6  1  0  0  0  0
  4  1  1  0  0  0  0
  5  4  1  0  0  0  0
  8  9  1  0  0  0  0
  8 10  1  0  0  0  0
 11 13  1  0  0  0  0
 11  8  1  0  0  0  0
 12 11  1  0  0  0  0
 14  4  1  0  0  0  0
 14 11  1  0  0  0  0
M  END
$$$$
Title Card Required
 OpenBabel06272217483D

 14 13  0  0  0  0  0  0  0  0999 V2000
   -2.1661   -1.5797    0.8756 C   0  0  0  0  0  0  0  0  0  0  0  0
   -1.2827   -2.1680    1.3693 H   0  0  0  0  0  0  0  0  0  0  0  0
   -3.1614   -1.9718    0.5797 H   0  0  0  0  0  0  0  0  0  0  0  0
   -1.8208   -1.2025   -0.5819 C   0  0  0  0  0  0  0  0  0  0  0  0
   -1.7716   -2.2107   -0.9940 H   0  0  0  0  0  0  0  0  0  0  0  0
   -0.8709   -0.6840   -0.4733 H   0  0  0  0  0  0  0  0  0  0  0  0
    2.0530    0.4440   -0.2067 Br  0  0  0  0  0 15  0  0  0  0  0  0
   -2.0329   -0.2074    1.5224 C   0  0  0  0  0  0  0  0  0  0  0  0
   -0.8562   -0.2141    1.6244 H   0  0  0  0  0  0  0  0  0  0  0  0
   -2.5259   -0.2964    2.4509 H   0  0  0  0  0  0  0  0  0  0  0  0
   -2.5564    0.7124    0.3542 C   0  0  0  0  0  0  0  0  0  0  0  0
   -1.8285    1.2585   -0.1502 H   0  0  0  0  0  0  0  0  0  0  0  0
   -3.3748    1.3696    0.7017 H   0  0  0  0  0  0  0  0  0  0  0  0
   -2.7077   -0.1725   -0.9305 O   0  0  0  0  0  0  0  0  0  0  0  0
  1  2  1  0  0  0  0
  1  8  1  0  0  0  0
  3  1  1  0  0  0  0
  4  6  1  0  0  0  0
  4  1  1  0  0  0  0
  5  4  1  0  0  0  0
  8  9  1  0  0  0  0
  8 10  1  0  0  0  0
 11 13  1  0  0  0  0
 11  8  1  0  0  0  0
 12 11  1  0  0  0  0
 14  4  1  0  0  0  0
 14 11  1  0  0  0  0
M  END
$$$$
Title Card Required
 OpenBabel06272217483D

 14 13  0  0  0  0  0  0  0  0999 V2000
   -2.1809   -1.5874    0.8620 C   0  0  0  0  0  0  0  0  0  0  0  0
   -1.3176   -2.1595    1.3852 H   0  0  0  0  0  0  0  0  0  0  0  0
   -3.2485   -1.9824    0.6912 H   0  0  0  0  0  0  0  0  0  0  0  0
   -1.8121   -1.2190   -0.5848 C   0  0  0  0  0  0  0  0  0  0  0  0
   -1.7395   -2.1647   -1.0734 H   0  0  0  0  0  0  0  0  0  0  0  0
   -0.8541   -0.7107   -0.5005 H   0  0  0  0  0  0  0  0  0  0  0  0
    2.0565    0.4456   -0.2065 Br  0  0  0  0  0 15  0  0  0  0  0  0
   -2.0169   -0.1974    1.5234 C   0  0  0  0  0  0  0  0  0  0  0  0
   -0.9024   -0.1831    1.6049 H   0  0  0  0  0  0  0  0  0  0  0  0
   -2.5977   -0.2451    2.4551 H   0  0  0  0  0  0  0  0  0  0  0  0
   -2.5574    0.7056    0.3668 C   0  0  0  0  0  0  0  0  0  0  0  0
   -1.7728    1.2852   -0.1287 H   0  0  0  0  0  0  0  0  0  0  0  0
   -3.3897    1.3923    0.7204 H   0  0  0  0  0  0  0  0  0  0  0  0
   -2.7222   -0.1742   -0.9320 O   0  0  0  0  0  0  0  0  0  0  0  0
  1  2  1  0  0  0  0
  1  8  1  0  0  0  0
  3  1  1  0  0  0  0
  4  6  1  0  0  0  0
  4  1  1  0  0  0  0
  5  4  1  0  0  0  0
  8  9  1  0  0  0  0
  8 10  1  0  0  0  0
 11 13  1  0  0  0  0
 11  8  1  0  0  0  0
 12 11  1  0  0  0  0
 14  4  1  0  0  0  0
 14 11  1  0  0  0  0
M  END
$$$$
Title Card Required
 OpenBabel06272217483D

 14 13  0  0  0  0  0  0  0  0999 V2000
   -2.1939   -1.5946    0.8489 C   0  0  0  0  0  0  0  0  0  0  0  0
   -1.3720   -2.1556    1.3890 H   0  0  0  0  0  0  0  0  0  0  0  0
   -3.3160   -1.9917    0.8104 H   0  0  0  0  0  0  0  0  0  0  0  0
   -1.8035   -1.2333   -0.5854 C   0  0  0  0  0  0  0  0  0  0  0  0
   -1.7153   -2.1250   -1.1683 H   0  0  0  0  0  0  0  0  0  0  0  0
   -0.8264   -0.7408   -0.5323 H   0  0  0  0  0  0  0  0  0  0  0  0
    2.0597    0.4472   -0.2064 Br  0  0  0  0  0 15  0  0  0  0  0  0
   -2.0027   -0.1890    1.5227 C   0  0  0  0  0  0  0  0  0  0  0  0
   -0.9528   -0.1436    1.5918 H   0  0  0  0  0  0  0  0  0  0  0  0
   -2.6621   -0.1878    2.4613 H   0  0  0  0  0  0  0  0  0  0  0  0
   -2.5576    0.6991    0.3775 C   0  0  0  0  0  0  0  0  0  0  0  0
   -1.7161    1.3195   -0.0969 H   0  0  0  0  0  0  0  0  0  0  0  0
   -3.4016    1.4014    0.7257 H   0  0  0  0  0  0  0  0  0  0  0  0
   -2.7365   -0.1761   -0.9316 O   0  0  0  0  0  0  0  0  0  0  0  0
  1  2  1  0  0  0  0
  1  8  1  0  0  0  0
  3  1  1  0  0  0  0
  4  6  1  0  0  0  0
  4  1  1  0  0  0  0
  5  4  1  0  0  0  0
  8  9  1  0  0  0  0
  8 10  1  0  0  0  0
 11 13  1  0  0  0  0
 11  8  1  0  0  0  0
 12 11  1  0  0  0  0
 14  4  1  0  0  0  0
 14 11  1  0  0  0  0
M  END
$$$$
Title Card Required
 OpenBabel06272217483D

 14 13  0  0  0  0  0  0  0  0999 V2000
   -2.2069   -1.6018    0.8361 C   0  0  0  0  0  0  0  0  0  0  0  0
   -1.4409   -2.1592    1.3849 H   0  0  0  0  0  0  0  0  0  0  0  0
   -3.3586   -1.9958    0.9363 H   0  0  0  0  0  0  0  0  0  0  0  0
   -1.7951   -1.2462   -0.5845 C   0  0  0  0  0  0  0  0  0  0  0  0
   -1.6981   -2.0893   -1.2786 H   0  0  0  0  0  0  0  0  0  0  0  0
   -0.7915   -0.7745   -0.5666 H   0  0  0  0  0  0  0  0  0  0  0  0
    2.0629    0.4487   -0.2062 Br  0  0  0  0  0 15  0  0  0  0  0  0
   -1.9923   -0.1819    1.5210 C   0  0  0  0  0  0  0  0  0  0  0  0
   -0.9866   -0.0952    1.5869 H   0  0  0  0  0  0  0  0  0  0  0  0
   -2.7124   -0.1246    2.4581 H   0  0  0  0  0  0  0  0  0  0  0  0
   -2.5564    0.6937    0.3861 C   0  0  0  0  0  0  0  0  0  0  0  0
   -1.6693    1.3522   -0.0502 H   0  0  0  0  0  0  0  0  0  0  0  0
   -3.4075    1.3956    0.7184 H   0  0  0  0  0  0  0  0  0  0  0  0
   -2.7510   -0.1781   -0.9292 O   0  0  0  0  0  0  0  0  0  0  0  0
  1  3  1  0  0  0  0
  1  2  1  0  0  0  0
  1  8  1  0  0  0  0
  4  6  1  0  0  0  0
  4  1  1  0  0  0  0
  5  4  1  0  0  0  0
  8  9  1  0  0  0  0
  8 10  1  0  0  0  0
 11 13  1  0  0  0  0
 11  8  1  0  0  0  0
 12 11  1  0  0  0  0
 14  4  1  0  0  0  0
 14 11  1  0  0  0  0
M  END
$$$$
Title Card Required
 OpenBabel06272217483D

 14 13  0  0  0  0  0  0  0  0999 V2000
   -2.2212   -1.6088    0.8241 C   0  0  0  0  0  0  0  0  0  0  0  0
   -1.5158   -2.1758    1.3778 H   0  0  0  0  0  0  0  0  0  0  0  0
   -3.3700   -1.9918    1.0626 H   0  0  0  0  0  0  0  0  0  0  0  0
   -1.7871   -1.2584   -0.5835 C   0  0  0  0  0  0  0  0  0  0  0  0
   -1.6900   -2.0511   -1.3965 H   0  0  0  0  0  0  0  0  0  0  0  0
   -0.7542   -0.8118   -0.6007 H   0  0  0  0  0  0  0  0  0  0  0  0
    2.0662    0.4502   -0.2060 Br  0  0  0  0  0 15  0  0  0  0  0  0
   -1.9882   -0.1761    1.5185 C   0  0  0  0  0  0  0  0  0  0  0  0
   -0.9832   -0.0366    1.5929 H   0  0  0  0  0  0  0  0  0  0  0  0
   -2.7412   -0.0581    2.4395 H   0  0  0  0  0  0  0  0  0  0  0  0
   -2.5532    0.6899    0.3924 C   0  0  0  0  0  0  0  0  0  0  0  0
   -1.6407    1.3773    0.0123 H   0  0  0  0  0  0  0  0  0  0  0  0
   -3.4063    1.3740    0.6986 H   0  0  0  0  0  0  0  0  0  0  0  0
   -2.7656   -0.1802   -0.9245 O   0  0  0  0  0  0  0  0  0  0  0  0
  1  3  1  0  0  0  0
  1  2  1  0  0  0  0
  1  8  1  0  0  0  0
  4  1  1  0  0  0  0
  5  4  1  0  0  0  0
  6  4  1  0  0  0  0
  8  9  1  0  0  0  0
  8 10  1  0  0  0  0
 11 13  1  0  0  0  0
 11  8  1  0  0  0  0
 12 11  1  0  0  0  0
 14  4  1  0  0  0  0
 14 11  1  0  0  0  0
M  END
$$$$
Title Card Required
 OpenBabel06272217483D

 14 13  0  0  0  0  0  0  0  0999 V2000
   -2.2373   -1.6151    0.8136 C   0  0  0  0  0  0  0  0  0  0  0  0
   -1.5843   -2.2116    1.3741 H   0  0  0  0  0  0  0  0  0  0  0  0
   -3.3478   -1.9777    1.1776 H   0  0  0  0  0  0  0  0  0  0  0  0
   -1.7798   -1.2699   -0.5838 C   0  0  0  0  0  0  0  0  0  0  0  0
   -1.6934   -2.0044   -1.5064 H   0  0  0  0  0  0  0  0  0  0  0  0
   -0.7210   -0.8519   -0.6302 H   0  0  0  0  0  0  0  0  0  0  0  0
    2.0694    0.4518   -0.2058 Br  0  0  0  0  0 15  0  0  0  0  0  0
   -1.9907   -0.1718    1.5153 C   0  0  0  0  0  0  0  0  0  0  0  0
   -0.9433    0.0298    1.6106 H   0  0  0  0  0  0  0  0  0  0  0  0
   -2.7438    0.0065    2.4042 H   0  0  0  0  0  0  0  0  0  0  0  0
   -2.5476    0.6880    0.3955 C   0  0  0  0  0  0  0  0  0  0  0  0
   -1.6358    1.3905    0.0865 H   0  0  0  0  0  0  0  0  0  0  0  0
   -3.4005    1.3388    0.6682 H   0  0  0  0  0  0  0  0  0  0  0  0
   -2.7794   -0.1823   -0.9172 O   0  0  0  0  0  0  0  0  0  0  0  0
  1  3  1  0  0  0  0
  1  2  1  0  0  0  0
  1  8  1  0  0  0  0
  4  1  1  0  0  0  0
  5  4  1  0  0  0  0
  6  4  1  0  0  0  0
  8  9  1  0  0  0  0
  8 10  1  0  0  0  0
 11 13  1  0  0  0  0
 11  8  1  0  0  0  0
 12 11  1  0  0  0  0
 14  4  1  0  0  0  0
 14 11  1  0  0  0  0
M  END
$$$$
Title Card Required
 OpenBabel06272217483D

 14 13  0  0  0  0  0  0  0  0999 V2000
   -2.2550   -1.6203    0.8055 C   0  0  0  0  0  0  0  0  0  0  0  0
   -1.6385   -2.2689    1.3766 H   0  0  0  0  0  0  0  0  0  0  0  0
   -3.2962   -1.9535    1.2714 H   0  0  0  0  0  0  0  0  0  0  0  0
   -1.7736   -1.2809   -0.5871 C   0  0  0  0  0  0  0  0  0  0  0  0
   -1.7101   -1.9466   -1.5947 H   0  0  0  0  0  0  0  0  0  0  0  0
   -0.6974   -0.8941   -0.6514 H   0  0  0  0  0  0  0  0  0  0  0  0
    2.0727    0.4534   -0.2056 Br  0  0  0  0  0 15  0  0  0  0  0  0
   -1.9978   -0.1687    1.5114 C   0  0  0  0  0  0  0  0  0  0  0  0
   -0.8915    0.0975    1.6374 H   0  0  0  0  0  0  0  0  0  0  0  0
   -2.7212    0.0654    2.3562 H   0  0  0  0  0  0  0  0  0  0  0  0
   -2.5393    0.6876    0.3950 C   0  0  0  0  0  0  0  0  0  0  0  0
   -1.6549    1.3917    0.1664 H   0  0  0  0  0  0  0  0  0  0  0  0
   -3.3966    1.2954    0.6306 H   0  0  0  0  0  0  0  0  0  0  0  0
   -2.7919   -0.1843   -0.9069 O   0  0  0  0  0  0  0  0  0  0  0  0
  1  3  1  0  0  0  0
  1  2  1  0  0  0  0
  1  8  1  0  0  0  0
  4  1  1  0  0  0  0
  5  4  1  0  0  0  0
  6  4  1  0  0  0  0
  8  9  1  0  0  0  0
  8 10  1  0  0  0  0
 11 13  1  0  0  0  0
 11  8  1  0  0  0  0
 12 11  1  0  0  0  0
 14  4  1  0  0  0  0
 14 11  1  0  0  0  0
M  END
$$$$
Title Card Required
 OpenBabel06272217483D

 14 13  0  0  0  0  0  0  0  0999 V2000
   -2.2736   -1.6249    0.8009 C   0  0  0  0  0  0  0  0  0  0  0  0
   -1.6786   -2.3447    1.3821 H   0  0  0  0  0  0  0  0  0  0  0  0
   -3.2251   -1.9198    1.3380 H   0  0  0  0  0  0  0  0  0  0  0  0
   -1.7688   -1.2916   -0.5947 C   0  0  0  0  0  0  0  0  0  0  0  0
   -1.7417   -1.8770   -1.6527 H   0  0  0  0  0  0  0  0  0  0  0  0
   -0.6866   -0.9381   -0.6610 H   0  0  0  0  0  0  0  0  0  0  0  0
    2.0761    0.4551   -0.2053 Br  0  0  0  0  0 15  0  0  0  0  0  0
   -2.0066   -0.1664    1.5063 C   0  0  0  0  0  0  0  0  0  0  0  0
   -0.8548    0.1590    1.6699 H   0  0  0  0  0  0  0  0  0  0  0  0
   -2.6794    0.1173    2.3041 H   0  0  0  0  0  0  0  0  0  0  0  0
   -2.5281    0.6880    0.3904 C   0  0  0  0  0  0  0  0  0  0  0  0
   -1.6937    1.3854    0.2455 H   0  0  0  0  0  0  0  0  0  0  0  0
   -3.4045    1.2497    0.5892 H   0  0  0  0  0  0  0  0  0  0  0  0
   -2.8027   -0.1859   -0.8931 O   0  0  0  0  0  0  0  0  0  0  0  0
  1  3  1  0  0  0  0
  1  2  1  0  0  0  0
  1  8  1  0  0  0  0
  4  1  1  0  0  0  0
  5  4  1  0  0  0  0
  6  4  1  0  0  0  0
  8  9  1  0  0  0  0
  8 10  1  0  0  0  0
 11 13  1  0  0  0  0
 11  8  1  0  0  0  0
 12 11  1  0  0  0  0
 14  4  1  0  0  0  0
 14 11  1  0  0  0  0
M  END
$$$$
Title Card Required
 OpenBabel06272217483D

 14 13  0  0  0  0  0  0  0  0999 V2000
   -2.2914   -1.6297    0.8013 C   0  0  0  0  0  0  0  0  0  0  0  0
   -1.7089   -2.4308    1.3806 H   0  0  0  0  0  0  0  0  0  0  0  0
   -3.1537   -1.8786    1.3739 H   0  0  0  0  0  0  0  0  0  0  0  0
   -1.7667   -1.3020   -0.6085 C   0  0  0  0  0  0  0  0  0  0  0  0
   -1.7923   -1.7970   -1.6719 H   0  0  0  0  0  0  0  0  0  0  0  0
   -0.6904   -0.9835   -0.6546 H   0  0  0  0  0  0  0  0  0  0  0  0
    2.0799    0.4569   -0.2050 Br  0  0  0  0  0 15  0  0  0  0  0  0
   -2.0144   -0.1651    1.4986 C   0  0  0  0  0  0  0  0  0  0  0  0
   -0.8553    0.2054    1.7044 H   0  0  0  0  0  0  0  0  0  0  0  0
   -2.6310    0.1644    2.2662 H   0  0  0  0  0  0  0  0  0  0  0  0
   -2.5143    0.6878    0.3805 C   0  0  0  0  0  0  0  0  0  0  0  0
   -1.7396    1.3848    0.3152 H   0  0  0  0  0  0  0  0  0  0  0  0
   -3.4353    1.2052    0.5460 H   0  0  0  0  0  0  0  0  0  0  0  0
   -2.8114   -0.1870   -0.8742 O   0  0  0  0  0  0  0  0  0  0  0  0
  1  3  1  0  0  0  0
  1  2  1  0  0  0  0
  1  8  1  0  0  0  0
  4  1  1  0  0  0  0
  5  4  1  0  0  0  0
  6  4  1  0  0  0  0
  8  9  1  0  0  0  0
  8 10  1  0  0  0  0
 11 13  1  0  0  0  0
 11  8  1  0  0  0  0
 12 11  1  0  0  0  0
 14  4  1  0  0  0  0
 14 11  1  0  0  0  0
M  END
$$$$
Title Card Required
 OpenBabel06272217483D

 14 13  0  0  0  0  0  0  0  0999 V2000
   -2.3029   -1.6353    0.8080 C   0  0  0  0  0  0  0  0  0  0  0  0
   -1.7322   -2.5075    1.3590 H   0  0  0  0  0  0  0  0  0  0  0  0
   -3.1299   -1.8396    1.3808 H   0  0  0  0  0  0  0  0  0  0  0  0
   -1.7699   -1.3113   -0.6288 C   0  0  0  0  0  0  0  0  0  0  0  0
   -1.8648   -1.7207   -1.6471 H   0  0  0  0  0  0  0  0  0  0  0  0
   -0.7066   -1.0245   -0.6270 H   0  0  0  0  0  0  0  0  0  0  0  0
    2.0841    0.4590   -0.2047 Br  0  0  0  0  0 15  0  0  0  0  0  0
   -2.0176   -0.1654    1.4863 C   0  0  0  0  0  0  0  0  0  0  0  0
   -0.9111    0.2225    1.7339 H   0  0  0  0  0  0  0  0  0  0  0  0
   -2.5995    0.2081    2.2739 H   0  0  0  0  0  0  0  0  0  0  0  0
   -2.5014    0.6850    0.3641 C   0  0  0  0  0  0  0  0  0  0  0  0
   -1.7645    1.4177    0.3581 H   0  0  0  0  0  0  0  0  0  0  0  0
   -3.4892    1.1619    0.5047 H   0  0  0  0  0  0  0  0  0  0  0  0
   -2.8161   -0.1868   -0.8491 O   0  0  0  0  0  0  0  0  0  0  0  0
  1  2  1  0  0  0  0
  1  3  1  0  0  0  0
  1  8  1  0  0  0  0
  4  6  1  0  0  0  0
  4  1  1  0  0  0  0
  5  4  1  0  0  0  0
  8  9  1  0  0  0  0
  8 10  1  0  0  0  0
 11 13  1  0  0  0  0
 11  8  1  0  0  0  0
 12 11  1  0  0  0  0
 14  4  1  0  0  0  0
 14 11  1  0  0  0  0
M  END
$$$$
Title Card Required
 OpenBabel06272217483D

 14 13  0  0  0  0  0  0  0  0999 V2000
   -2.3032   -1.6414    0.8185 C   0  0  0  0  0  0  0  0  0  0  0  0
   -1.7487   -2.5475    1.3176 H   0  0  0  0  0  0  0  0  0  0  0  0
   -3.1878   -1.8171    1.3685 H   0  0  0  0  0  0  0  0  0  0  0  0
   -1.7798   -1.3166   -0.6488 C   0  0  0  0  0  0  0  0  0  0  0  0
   -1.9452   -1.6823   -1.6093 H   0  0  0  0  0  0  0  0  0  0  0  0
   -0.7225   -1.0492   -0.5862 H   0  0  0  0  0  0  0  0  0  0  0  0
    2.0879    0.4610   -0.2043 Br  0  0  0  0  0 15  0  0  0  0  0  0
   -2.0159   -0.1673    1.4724 C   0  0  0  0  0  0  0  0  0  0  0  0
   -1.0005    0.2047    1.7485 H   0  0  0  0  0  0  0  0  0  0  0  0
   -2.5934    0.2362    2.3230 H   0  0  0  0  0  0  0  0  0  0  0  0
   -2.4947    0.6803    0.3446 C   0  0  0  0  0  0  0  0  0  0  0  0
   -1.7576    1.4843    0.3608 H   0  0  0  0  0  0  0  0  0  0  0  0
   -3.5374    1.1216    0.4739 H   0  0  0  0  0  0  0  0  0  0  0  0
   -2.8151   -0.1850   -0.8224 O   0  0  0  0  0  0  0  0  0  0  0  0
  1  2  1  0  0  0  0
  1  3  1  0  0  0  0
  1  8  1  0  0  0  0
  4  6  1  0  0  0  0
  4  1  1  0  0  0  0
  5  4  1  0  0  0  0
  8  9  1  0  0  0  0
  8 10  1  0  0  0  0
 11 12  1  0  0  0  0
 11 13  1  0  0  0  0
 11  8  1  0  0  0  0
 14  4  1  0  0  0  0
 14 11  1  0  0  0  0
M  END
$$$$
Title Card Required
 OpenBabel06272217483D

 14 13  0  0  0  0  0  0  0  0999 V2000
   -2.2963   -1.6480    0.8313 C   0  0  0  0  0  0  0  0  0  0  0  0
   -1.7607   -2.5543    1.2675 H   0  0  0  0  0  0  0  0  0  0  0  0
   -3.2888   -1.8056    1.3332 H   0  0  0  0  0  0  0  0  0  0  0  0
   -1.7948   -1.3176   -0.6639 C   0  0  0  0  0  0  0  0  0  0  0  0
   -2.0276   -1.6915   -1.5961 H   0  0  0  0  0  0  0  0  0  0  0  0
   -0.7331   -1.0594   -0.5440 H   0  0  0  0  0  0  0  0  0  0  0  0
    2.0913    0.4628   -0.2040 Br  0  0  0  0  0 15  0  0  0  0  0  0
   -2.0139   -0.1703    1.4598 C   0  0  0  0  0  0  0  0  0  0  0  0
   -1.0801    0.1680    1.7526 H   0  0  0  0  0  0  0  0  0  0  0  0
   -2.5950    0.2405    2.3759 H   0  0  0  0  0  0  0  0  0  0  0  0
   -2.4935    0.6765    0.3244 C   0  0  0  0  0  0  0  0  0  0  0  0
   -1.7456    1.5531    0.3327 H   0  0  0  0  0  0  0  0  0  0  0  0
   -3.5631    1.0838    0.4536 H   0  0  0  0  0  0  0  0  0  0  0  0
   -2.8095   -0.1820   -0.7965 O   0  0  0  0  0  0  0  0  0  0  0  0
  1  2  1  0  0  0  0
  1  3  1  0  0  0  0
  1  8  1  0  0  0  0
  4  6  1  0  0  0  0
  4  1  1  0  0  0  0
  5  4  1  0  0  0  0
  8  9  1  0  0  0  0
  8 10  1  0  0  0  0
 11 12  1  0  0  0  0
 11 13  1  0  0  0  0
 11  8  1  0  0  0  0
 14  4  1  0  0  0  0
 14 11  1  0  0  0  0
M  END
$$$$
Title Card Required
 OpenBabel06272217483D

 14 13  0  0  0  0  0  0  0  0999 V2000
   -2.2869   -1.6550    0.8464 C   0  0  0  0  0  0  0  0  0  0  0  0
   -1.7676   -2.5409    1.2175 H   0  0  0  0  0  0  0  0  0  0  0  0
   -3.3921   -1.7979    1.2664 H   0  0  0  0  0  0  0  0  0  0  0  0
   -1.8142   -1.3148   -0.6737 C   0  0  0  0  0  0  0  0  0  0  0  0
   -2.1117   -1.7415   -1.6096 H   0  0  0  0  0  0  0  0  0  0  0  0
   -0.7421   -1.0604   -0.5076 H   0  0  0  0  0  0  0  0  0  0  0  0
    2.0946    0.4644   -0.2036 Br  0  0  0  0  0 15  0  0  0  0  0  0
   -2.0156   -0.1746    1.4488 C   0  0  0  0  0  0  0  0  0  0  0  0
   -1.1125    0.1280    1.7565 H   0  0  0  0  0  0  0  0  0  0  0  0
   -2.5940    0.2197    2.4128 H   0  0  0  0  0  0  0  0  0  0  0  0
   -2.4958    0.6751    0.3039 C   0  0  0  0  0  0  0  0  0  0  0  0
   -1.7465    1.6043    0.2820 H   0  0  0  0  0  0  0  0  0  0  0  0
   -3.5657    1.0494    0.4426 H   0  0  0  0  0  0  0  0  0  0  0  0
   -2.8001   -0.1782   -0.7712 O   0  0  0  0  0  0  0  0  0  0  0  0
  1  2  1  0  0  0  0
  1  3  1  0  0  0  0
  1  8  1  0  0  0  0
  4  6  1  0  0  0  0
  4  1  1  0  0  0  0
  5  4  1  0  0  0  0
  8  9  1  0  0  0  0
  8 10  1  0  0  0  0
 11 13  1  0  0  0  0
 11  8  1  0  0  0  0
 12 11  1  0  0  0  0
 14  4  1  0  0  0  0
 14 11  1  0  0  0  0
M  END
$$$$
Title Card Required
 OpenBabel06272217483D

 14 13  0  0  0  0  0  0  0  0999 V2000
   -2.2784   -1.6611    0.8621 C   0  0  0  0  0  0  0  0  0  0  0  0
   -1.7645   -2.5242    1.1783 H   0  0  0  0  0  0  0  0  0  0  0  0
   -3.4688   -1.7921    1.1711 H   0  0  0  0  0  0  0  0  0  0  0  0
   -1.8370   -1.3096   -0.6796 C   0  0  0  0  0  0  0  0  0  0  0  0
   -2.1882   -1.8153   -1.6272 H   0  0  0  0  0  0  0  0  0  0  0  0
   -0.7545   -1.0564   -0.4843 H   0  0  0  0  0  0  0  0  0  0  0  0
    2.0977    0.4661   -0.2033 Br  0  0  0  0  0 15  0  0  0  0  0  0
   -2.0224   -0.1805    1.4396 C   0  0  0  0  0  0  0  0  0  0  0  0
   -1.0815    0.0938    1.7660 H   0  0  0  0  0  0  0  0  0  0  0  0
   -2.5878    0.1769    2.4253 H   0  0  0  0  0  0  0  0  0  0  0  0
   -2.5003    0.6765    0.2844 C   0  0  0  0  0  0  0  0  0  0  0  0
   -1.7656    1.6280    0.2161 H   0  0  0  0  0  0  0  0  0  0  0  0
   -3.5504    1.0228    0.4412 H   0  0  0  0  0  0  0  0  0  0  0  0
   -2.7878   -0.1741   -0.7478 O   0  0  0  0  0  0  0  0  0  0  0  0
  1  3  1  0  0  0  0
  1  2  1  0  0  0  0
  1  8  1  0  0  0  0
  4  6  1  0  0  0  0
  4  1  1  0  0  0  0
  5  4  1  0  0  0  0
  8  9  1  0  0  0  0
  8 10  1  0  0  0  0
 11 13  1  0  0  0  0
 11  8  1  0  0  0  0
 12 11  1  0  0  0  0
 14  4  1  0  0  0  0
 14 11  1  0  0  0  0
M  END
$$$$
Title Card Required
 OpenBabel06272217483D

 14 13  0  0  0  0  0  0  0  0999 V2000
   -2.2731   -1.6648    0.8766 C   0  0  0  0  0  0  0  0  0  0  0  0
   -1.7472   -2.5198    1.1575 H   0  0  0  0  0  0  0  0  0  0  0  0
   -3.5066   -1.7886    1.0583 H   0  0  0  0  0  0  0  0  0  0  0  0
   -1.8623   -1.3033   -0.6828 C   0  0  0  0  0  0  0  0  0  0  0  0
   -2.2484   -1.8936   -1.6278 H   0  0  0  0  0  0  0  0  0  0  0  0
   -0.7733   -1.0506   -0.4782 H   0  0  0  0  0  0  0  0  0  0  0  0
    2.1005    0.4676   -0.2030 Br  0  0  0  0  0 15  0  0  0  0  0  0
   -2.0322   -0.1872    1.4328 C   0  0  0  0  0  0  0  0  0  0  0  0
   -1.0127    0.0614    1.7747 H   0  0  0  0  0  0  0  0  0  0  0  0
   -2.5773    0.1181    2.4144 H   0  0  0  0  0  0  0  0  0  0  0  0
   -2.5057    0.6805    0.2671 C   0  0  0  0  0  0  0  0  0  0  0  0
   -1.8000    1.6240    0.1424 H   0  0  0  0  0  0  0  0  0  0  0  0
   -3.5275    1.0081    0.4491 H   0  0  0  0  0  0  0  0  0  0  0  0
   -2.7737   -0.1705   -0.7275 O   0  0  0  0  0  0  0  0  0  0  0  0
  1  3  1  0  0  0  0
  1  2  1  0  0  0  0
  1  8  1  0  0  0  0
  4  6  1  0  0  0  0
  4  1  1  0  0  0  0
  5  4  1  0  0  0  0
  8  9  1  0  0  0  0
  8 10  1  0  0  0  0
 11 13  1  0  0  0  0
 11  8  1  0  0  0  0
 12 11  1  0  0  0  0
 14  4  1  0  0  0  0
 14 11  1  0  0  0  0
M  END
$$$$
Title Card Required
 OpenBabel06272217483D

 14 13  0  0  0  0  0  0  0  0999 V2000
   -2.2714   -1.6658    0.8891 C   0  0  0  0  0  0  0  0  0  0  0  0
   -1.7164   -2.5313    1.1553 H   0  0  0  0  0  0  0  0  0  0  0  0
   -3.5048   -1.7884    0.9380 H   0  0  0  0  0  0  0  0  0  0  0  0
   -1.8897   -1.2971   -0.6841 C   0  0  0  0  0  0  0  0  0  0  0  0
   -2.2898   -1.9647   -1.6030 H   0  0  0  0  0  0  0  0  0  0  0  0
   -0.7992   -1.0450   -0.4902 H   0  0  0  0  0  0  0  0  0  0  0  0
    2.1033    0.4690   -0.2026 Br  0  0  0  0  0 15  0  0  0  0  0  0
   -2.0417   -0.1943    1.4286 C   0  0  0  0  0  0  0  0  0  0  0  0
   -0.9408    0.0247    1.7737 H   0  0  0  0  0  0  0  0  0  0  0  0
   -2.5652    0.0497    2.3865 H   0  0  0  0  0  0  0  0  0  0  0  0
   -2.5109    0.6868    0.2525 C   0  0  0  0  0  0  0  0  0  0  0  0
   -1.8446    1.5981    0.0655 H   0  0  0  0  0  0  0  0  0  0  0  0
   -3.5078    1.0081    0.4661 H   0  0  0  0  0  0  0  0  0  0  0  0
   -2.7585   -0.1678   -0.7109 O   0  0  0  0  0  0  0  0  0  0  0  0
  1  3  1  0  0  0  0
  1  2  1  0  0  0  0
  1  8  1  0  0  0  0
  4  6  1  0  0  0  0
  4  1  1  0  0  0  0
  5  4  1  0  0  0  0
  8  9  1  0  0  0  0
  8 10  1  0  0  0  0
 11 13  1  0  0  0  0
 11  8  1  0  0  0  0
 12 11  1  0  0  0  0
 14  4  1  0  0  0  0
 14 11  1  0  0  0  0
M  END
$$$$
Title Card Required
 OpenBabel06272217483D

 14 13  0  0  0  0  0  0  0  0999 V2000
   -2.2728   -1.6649    0.8989 C   0  0  0  0  0  0  0  0  0  0  0  0
   -1.6790   -2.5508    1.1676 H   0  0  0  0  0  0  0  0  0  0  0  0
   -3.4671   -1.7921    0.8182 H   0  0  0  0  0  0  0  0  0  0  0  0
   -1.9185   -1.2914   -0.6835 C   0  0  0  0  0  0  0  0  0  0  0  0
   -2.3131   -2.0220   -1.5521 H   0  0  0  0  0  0  0  0  0  0  0  0
   -0.8314   -1.0408   -0.5203 H   0  0  0  0  0  0  0  0  0  0  0  0
    2.1059    0.4704   -0.2023 Br  0  0  0  0  0 15  0  0  0  0  0  0
   -2.0487   -0.2018    1.4268 C   0  0  0  0  0  0  0  0  0  0  0  0
   -0.8868   -0.0185    1.7586 H   0  0  0  0  0  0  0  0  0  0  0  0
   -2.5563   -0.0222    2.3521 H   0  0  0  0  0  0  0  0  0  0  0  0
   -2.5154    0.6946    0.2411 C   0  0  0  0  0  0  0  0  0  0  0  0
   -1.8917    1.5594   -0.0117 H   0  0  0  0  0  0  0  0  0  0  0  0
   -3.4986    1.0236    0.4917 H   0  0  0  0  0  0  0  0  0  0  0  0
   -2.7431   -0.1665   -0.6986 O   0  0  0  0  0  0  0  0  0  0  0  0
  1  2  1  0  0  0  0
  1  8  1  0  0  0  0
  3  1  1  0  0  0  0
  4  6  1  0  0  0  0
  4  1  1  0  0  0  0
  5  4  1  0  0  0  0
  8  9  1  0  0  0  0
  8 10  1  0  0  0  0
 11 13  1  0  0  0  0
 11  8  1  0  0  0  0
 12 11  1  0  0  0  0
 14  4  1  0  0  0  0
 14 11  1  0  0  0  0
M  END
$$$$
Title Card Required
 OpenBabel06272217483D

 14 13  0  0  0  0  0  0  0  0999 V2000
   -2.2761   -1.6629    0.9058 C   0  0  0  0  0  0  0  0  0  0  0  0
   -1.6438   -2.5665    1.1898 H   0  0  0  0  0  0  0  0  0  0  0  0
   -3.4005   -1.8009    0.7054 H   0  0  0  0  0  0  0  0  0  0  0  0
   -1.9485   -1.2869   -0.6807 C   0  0  0  0  0  0  0  0  0  0  0  0
   -2.3209   -2.0627   -1.4775 H   0  0  0  0  0  0  0  0  0  0  0  0
   -0.8677   -1.0389   -0.5679 H   0  0  0  0  0  0  0  0  0  0  0  0
    2.1086    0.4718   -0.2019 Br  0  0  0  0  0 15  0  0  0  0  0  0
   -2.0519   -0.2100    1.4261 C   0  0  0  0  0  0  0  0  0  0  0  0
   -0.8607   -0.0676    1.7288 H   0  0  0  0  0  0  0  0  0  0  0  0
   -2.5571   -0.0920    2.3258 H   0  0  0  0  0  0  0  0  0  0  0  0
   -2.5195    0.7035    0.2334 C   0  0  0  0  0  0  0  0  0  0  0  0
   -1.9318    1.5202   -0.0888 H   0  0  0  0  0  0  0  0  0  0  0  0
   -3.5012    1.0538    0.5245 H   0  0  0  0  0  0  0  0  0  0  0  0
   -2.7280   -0.1668   -0.6911 O   0  0  0  0  0  0  0  0  0  0  0  0
  1  2  1  0  0  0  0
  1  8  1  0  0  0  0
  3  1  1  0  0  0  0
  4  6  1  0  0  0  0
  4  1  1  0  0  0  0
  5  4  1  0  0  0  0
  8  9  1  0  0  0  0
  8 10  1  0  0  0  0
 11 13  1  0  0  0  0
 11  8  1  0  0  0  0
 12 11  1  0  0  0  0
 14  4  1  0  0  0  0
 14 11  1  0  0  0  0
M  END
$$$$
Title Card Required
 OpenBabel06272217483D

 14 13  0  0  0  0  0  0  0  0999 V2000
   -2.2799   -1.6607    0.9096 C   0  0  0  0  0  0  0  0  0  0  0  0
   -1.6193   -2.5681    1.2174 H   0  0  0  0  0  0  0  0  0  0  0  0
   -3.3180   -1.8170    0.6059 H   0  0  0  0  0  0  0  0  0  0  0  0
   -1.9789   -1.2841   -0.6753 C   0  0  0  0  0  0  0  0  0  0  0  0
   -2.3175   -2.0870   -1.3853 H   0  0  0  0  0  0  0  0  0  0  0  0
   -0.9048   -1.0398   -0.6322 H   0  0  0  0  0  0  0  0  0  0  0  0
    2.1112    0.4733   -0.2016 Br  0  0  0  0  0 15  0  0  0  0  0  0
   -2.0504   -0.2191    1.4254 C   0  0  0  0  0  0  0  0  0  0  0  0
   -0.8668   -0.1209    1.6856 H   0  0  0  0  0  0  0  0  0  0  0  0
   -2.5735   -0.1550    2.3209 H   0  0  0  0  0  0  0  0  0  0  0  0
   -2.5240    0.7126    0.2305 C   0  0  0  0  0  0  0  0  0  0  0  0
   -1.9546    1.4943   -0.1662 H   0  0  0  0  0  0  0  0  0  0  0  0
   -3.5112    1.0957    0.5609 H   0  0  0  0  0  0  0  0  0  0  0  0
   -2.7143   -0.1686   -0.6887 O   0  0  0  0  0  0  0  0  0  0  0  0
  1  2  1  0  0  0  0
  1  8  1  0  0  0  0
  3  1  1  0  0  0  0
  4  6  1  0  0  0  0
  4  1  1  0  0  0  0
  5  4  1  0  0  0  0
  8  9  1  0  0  0  0
  8 10  1  0  0  0  0
 11 13  1  0  0  0  0
 11  8  1  0  0  0  0
 12 11  1  0  0  0  0
 14  4  1  0  0  0  0
 14 11  1  0  0  0  0
M  END
$$$$
Title Card Required
 OpenBabel06272217483D

 14 13  0  0  0  0  0  0  0  0999 V2000
   -2.2822   -1.6586    0.9100 C   0  0  0  0  0  0  0  0  0  0  0  0
   -1.6113   -2.5492    1.2465 H   0  0  0  0  0  0  0  0  0  0  0  0
   -3.2409   -1.8436    0.5236 H   0  0  0  0  0  0  0  0  0  0  0  0
   -2.0080   -1.2831   -0.6664 C   0  0  0  0  0  0  0  0  0  0  0  0
   -2.3103   -2.1009   -1.2868 H   0  0  0  0  0  0  0  0  0  0  0  0
   -0.9386   -1.0445   -0.7116 H   0  0  0  0  0  0  0  0  0  0  0  0
    2.1139    0.4747   -0.2012 Br  0  0  0  0  0 15  0  0  0  0  0  0
   -2.0442   -0.2293    1.4246 C   0  0  0  0  0  0  0  0  0  0  0  0
   -0.9045   -0.1756    1.6323 H   0  0  0  0  0  0  0  0  0  0  0  0
   -2.6050   -0.2076    2.3397 H   0  0  0  0  0  0  0  0  0  0  0  0
   -2.5296    0.7219    0.2328 C   0  0  0  0  0  0  0  0  0  0  0  0
   -1.9549    1.4891   -0.2420 H   0  0  0  0  0  0  0  0  0  0  0  0
   -3.5207    1.1441    0.5956 H   0  0  0  0  0  0  0  0  0  0  0  0
   -2.7030   -0.1716   -0.6919 O   0  0  0  0  0  0  0  0  0  0  0  0
  1  2  1  0  0  0  0
  1  8  1  0  0  0  0
  3  1  1  0  0  0  0
  4  1  1  0  0  0  0
  5  4  1  0  0  0  0
  6  4  1  0  0  0  0
  8  9  1  0  0  0  0
  8 10  1  0  0  0  0
 11 13  1  0  0  0  0
 11  8  1  0  0  0  0
 12 11  1  0  0  0  0
 14  4  1  0  0  0  0
 14 11  1  0  0  0  0
M  END
$$$$
Title Card Required
 OpenBabel06272217483D

 14 13  0  0  0  0  0  0  0  0999 V2000
   -2.2812   -1.6564    0.9071 C   0  0  0  0  0  0  0  0  0  0  0  0
   -1.6218   -2.5074    1.2751 H   0  0  0  0  0  0  0  0  0  0  0  0
   -3.1926   -1.8863    0.4594 H   0  0  0  0  0  0  0  0  0  0  0  0
   -2.0342   -1.2840   -0.6527 C   0  0  0  0  0  0  0  0  0  0  0  0
   -2.3103   -2.1190   -1.1970 H   0  0  0  0  0  0  0  0  0  0  0  0
   -0.9668   -1.0544   -0.8051 H   0  0  0  0  0  0  0  0  0  0  0  0
    2.1166    0.4762   -0.2007 Br  0  0  0  0  0 15  0  0  0  0  0  0
   -2.0350   -0.2408    1.4242 C   0  0  0  0  0  0  0  0  0  0  0  0
   -0.9645   -0.2288    1.5732 H   0  0  0  0  0  0  0  0  0  0  0  0
   -2.6426   -0.2480    2.3715 H   0  0  0  0  0  0  0  0  0  0  0  0
   -2.5364    0.7318    0.2406 C   0  0  0  0  0  0  0  0  0  0  0  0
   -1.9362    1.5005   -0.3092 H   0  0  0  0  0  0  0  0  0  0  0  0
   -3.5219    1.1943    0.6235 H   0  0  0  0  0  0  0  0  0  0  0  0
   -2.6952   -0.1751   -0.7011 O   0  0  0  0  0  0  0  0  0  0  0  0
  1  2  1  0  0  0  0
  1  8  1  0  0  0  0
  3  1  1  0  0  0  0
  4  1  1  0  0  0  0
  5  4  1  0  0  0  0
  6  4  1  0  0  0  0
  8  9  1  0  0  0  0
  8 10  1  0  0  0  0
 11 13  1  0  0  0  0
 11  8  1  0  0  0  0
 12 11  1  0  0  0  0
 14  4  1  0  0  0  0
 14 11  1  0  0  0  0
M  END
$$$$
Title Card Required
 OpenBabel06272217483D

 14 13  0  0  0  0  0  0  0  0999 V2000
   -2.2761   -1.6536    0.9003 C   0  0  0  0  0  0  0  0  0  0  0  0
   -1.6485   -2.4458    1.3035 H   0  0  0  0  0  0  0  0  0  0  0  0
   -3.1887   -1.9506    0.4191 H   0  0  0  0  0  0  0  0  0  0  0  0
   -2.0552   -1.2867   -0.6328 C   0  0  0  0  0  0  0  0  0  0  0  0
   -2.3306   -2.1597   -1.1312 H   0  0  0  0  0  0  0  0  0  0  0  0
   -0.9901   -1.0726   -0.9117 H   0  0  0  0  0  0  0  0  0  0  0  0
    2.1196    0.4779   -0.2003 Br  0  0  0  0  0 15  0  0  0  0  0  0
   -2.0264   -0.2539    1.4255 C   0  0  0  0  0  0  0  0  0  0  0  0
   -1.0174   -0.2770    1.5158 H   0  0  0  0  0  0  0  0  0  0  0  0
   -2.6715   -0.2727    2.4000 H   0  0  0  0  0  0  0  0  0  0  0  0
   -2.5437    0.7436    0.2535 C   0  0  0  0  0  0  0  0  0  0  0  0
   -1.9071    1.5170   -0.3532 H   0  0  0  0  0  0  0  0  0  0  0  0
   -3.5078    1.2417    0.6396 H   0  0  0  0  0  0  0  0  0  0  0  0
   -2.6924   -0.1778   -0.7170 O   0  0  0  0  0  0  0  0  0  0  0  0
  1  2  1  0  0  0  0
  1  8  1  0  0  0  0
  3  1  1  0  0  0  0
  4  1  1  0  0  0  0
  5  4  1  0  0  0  0
  6  4  1  0  0  0  0
  8  9  1  0  0  0  0
  8 10  1  0  0  0  0
 11 13  1  0  0  0  0
 11  8  1  0  0  0  0
 12 11  1  0  0  0  0
 14  4  1  0  0  0  0
 14 11  1  0  0  0  0
M  END
$$$$
Title Card Required
 OpenBabel06272217483D

 14 13  0  0  0  0  0  0  0  0999 V2000
   -2.2692   -1.6493    0.8881 C   0  0  0  0  0  0  0  0  0  0  0  0
   -1.6765   -2.3840    1.3357 H   0  0  0  0  0  0  0  0  0  0  0  0
   -3.2240   -2.0304    0.4228 H   0  0  0  0  0  0  0  0  0  0  0  0
   -2.0670   -1.2929   -0.6082 C   0  0  0  0  0  0  0  0  0  0  0  0
   -2.3771   -2.2218   -1.0987 H   0  0  0  0  0  0  0  0  0  0  0  0
   -1.0126   -1.1023   -1.0190 H   0  0  0  0  0  0  0  0  0  0  0  0
    2.1227    0.4796   -0.1997 Br  0  0  0  0  0 15  0  0  0  0  0  0
   -2.0246   -0.2678    1.4292 C   0  0  0  0  0  0  0  0  0  0  0  0
   -1.0095   -0.3133    1.4729 H   0  0  0  0  0  0  0  0  0  0  0  0
   -2.6744   -0.2762    2.4088 H   0  0  0  0  0  0  0  0  0  0  0  0
   -2.5497    0.7568    0.2699 C   0  0  0  0  0  0  0  0  0  0  0  0
   -1.8796    1.5246   -0.3536 H   0  0  0  0  0  0  0  0  0  0  0  0
   -3.4774    1.2795    0.6392 H   0  0  0  0  0  0  0  0  0  0  0  0
   -2.6966   -0.1779   -0.7391 O   0  0  0  0  0  0  0  0  0  0  0  0
  1  2  1  0  0  0  0
  1  8  1  0  0  0  0
  3  1  1  0  0  0  0
  4  1  1  0  0  0  0
  5  4  1  0  0  0  0
  6  4  1  0  0  0  0
  8  9  1  0  0  0  0
  8 10  1  0  0  0  0
 11 13  1  0  0  0  0
 11  8  1  0  0  0  0
 12 11  1  0  0  0  0
 14  4  1  0  0  0  0
 14 11  1  0  0  0  0
M  END
$$$$
Title Card Required
 OpenBabel06272217483D

 14 13  0  0  0  0  0  0  0  0999 V2000
   -2.2648   -1.6437    0.8712 C   0  0  0  0  0  0  0  0  0  0  0  0
   -1.6851   -2.3503    1.3753 H   0  0  0  0  0  0  0  0  0  0  0  0
   -3.2692   -2.1023    0.4786 H   0  0  0  0  0  0  0  0  0  0  0  0
   -2.0687   -1.3039   -0.5852 C   0  0  0  0  0  0  0  0  0  0  0  0
   -2.4354   -2.2728   -1.0899 H   0  0  0  0  0  0  0  0  0  0  0  0
   -1.0383   -1.1412   -1.1028 H   0  0  0  0  0  0  0  0  0  0  0  0
    2.1256    0.4812   -0.1992 Br  0  0  0  0  0 15  0  0  0  0  0  0
   -2.0301   -0.2798    1.4345 C   0  0  0  0  0  0  0  0  0  0  0  0
   -0.9441   -0.3317    1.4506 H   0  0  0  0  0  0  0  0  0  0  0  0
   -2.6477   -0.2601    2.3964 H   0  0  0  0  0  0  0  0  0  0  0  0
   -2.5525    0.7688    0.2857 C   0  0  0  0  0  0  0  0  0  0  0  0
   -1.8626    1.5167   -0.3072 H   0  0  0  0  0  0  0  0  0  0  0  0
   -3.4440    1.3040    0.6263 H   0  0  0  0  0  0  0  0  0  0  0  0
   -2.7067   -0.1746   -0.7633 O   0  0  0  0  0  0  0  0  0  0  0  0
  1  2  1  0  0  0  0
  1  8  1  0  0  0  0
  3  1  1  0  0  0  0
  4  1  1  0  0  0  0
  5  4  1  0  0  0  0
  6  4  1  0  0  0  0
  8  9  1  0  0  0  0
  8 10  1  0  0  0  0
 11 13  1  0  0  0  0
 11  8  1  0  0  0  0
 12 11  1  0  0  0  0
 14  4  1  0  0  0  0
 14 11  1  0  0  0  0
M  END
$$$$
Title Card Required
 OpenBabel06272217483D

 14 13  0  0  0  0  0  0  0  0999 V2000
   -2.2639   -1.6381    0.8522 C   0  0  0  0  0  0  0  0  0  0  0  0
   -1.6757   -2.3424    1.4182 H   0  0  0  0  0  0  0  0  0  0  0  0
   -3.3045   -2.1547    0.5735 H   0  0  0  0  0  0  0  0  0  0  0  0
   -2.0642   -1.3188   -0.5672 C   0  0  0  0  0  0  0  0  0  0  0  0
   -2.4926   -2.2956   -1.0893 H   0  0  0  0  0  0  0  0  0  0  0  0
   -1.0689   -1.1860   -1.1571 H   0  0  0  0  0  0  0  0  0  0  0  0
    2.1282    0.4827   -0.1988 Br  0  0  0  0  0 15  0  0  0  0  0  0
   -2.0378   -0.2892    1.4404 C   0  0  0  0  0  0  0  0  0  0  0  0
   -0.8738   -0.3339    1.4429 H   0  0  0  0  0  0  0  0  0  0  0  0
   -2.6034   -0.2317    2.3759 H   0  0  0  0  0  0  0  0  0  0  0  0
   -2.5519    0.7779    0.2997 C   0  0  0  0  0  0  0  0  0  0  0  0
   -1.8529    1.4979   -0.2294 H   0  0  0  0  0  0  0  0  0  0  0  0
   -3.4214    1.3218    0.6088 H   0  0  0  0  0  0  0  0  0  0  0  0
   -2.7202   -0.1691   -0.7870 O   0  0  0  0  0  0  0  0  0  0  0  0
  1  2  1  0  0  0  0
  1  8  1  0  0  0  0
  3  1  1  0  0  0  0
  4  1  1  0  0  0  0
  5  4  1  0  0  0  0
  6  4  1  0  0  0  0
  8  9  1  0  0  0  0
  8 10  1  0  0  0  0
 11 13  1  0  0  0  0
 11  8  1  0  0  0  0
 12 11  1  0  0  0  0
 14  4  1  0  0  0  0
 14 11  1  0  0  0  0
M  END
$$$$
Title Card Required
 OpenBabel06272217483D

 14 13  0  0  0  0  0  0  0  0999 V2000
   -2.2656   -1.6340    0.8333 C   0  0  0  0  0  0  0  0  0  0  0  0
   -1.6587   -2.3449    1.4554 H   0  0  0  0  0  0  0  0  0  0  0  0
   -3.3238   -2.1856    0.6956 H   0  0  0  0  0  0  0  0  0  0  0  0
   -2.0564   -1.3371   -0.5550 C   0  0  0  0  0  0  0  0  0  0  0  0
   -2.5446   -2.2896   -1.0894 H   0  0  0  0  0  0  0  0  0  0  0  0
   -1.1030   -1.2355   -1.1840 H   0  0  0  0  0  0  0  0  0  0  0  0
    2.1306    0.4841   -0.1983 Br  0  0  0  0  0 15  0  0  0  0  0  0
   -2.0443   -0.2963    1.4454 C   0  0  0  0  0  0  0  0  0  0  0  0
   -0.8276   -0.3231    1.4449 H   0  0  0  0  0  0  0  0  0  0  0  0
   -2.5532   -0.1951    2.3624 H   0  0  0  0  0  0  0  0  0  0  0  0
   -2.5483    0.7836    0.3122 C   0  0  0  0  0  0  0  0  0  0  0  0
   -1.8425    1.4754   -0.1325 H   0  0  0  0  0  0  0  0  0  0  0  0
   -3.4158    1.3388    0.5916 H   0  0  0  0  0  0  0  0  0  0  0  0
   -2.7360   -0.1620   -0.8100 O   0  0  0  0  0  0  0  0  0  0  0  0
  1  8  1  0  0  0  0
  1  2  1  0  0  0  0
  3  1  1  0  0  0  0
  4  1  1  0  0  0  0
  5  4  1  0  0  0  0
  6  4  1  0  0  0  0
  8 10  1  0  0  0  0
  9  8  1  0  0  0  0
 11 13  1  0  0  0  0
 11  8  1  0  0  0  0
 12 11  1  0  0  0  0
 14  4  1  0  0  0  0
 14 11  1  0  0  0  0
M  END
$$$$
Title Card Required
 OpenBabel06272217483D

 14 13  0  0  0  0  0  0  0  0999 V2000
   -2.2692   -1.6326    0.8170 C   0  0  0  0  0  0  0  0  0  0  0  0
   -1.6426   -2.3464    1.4775 H   0  0  0  0  0  0  0  0  0  0  0  0
   -3.3244   -2.1942    0.8345 H   0  0  0  0  0  0  0  0  0  0  0  0
   -2.0477   -1.3577   -0.5492 C   0  0  0  0  0  0  0  0  0  0  0  0
   -2.5894   -2.2580   -1.0876 H   0  0  0  0  0  0  0  0  0  0  0  0
   -1.1361   -1.2881   -1.1863 H   0  0  0  0  0  0  0  0  0  0  0  0
    2.1329    0.4854   -0.1979 Br  0  0  0  0  0 15  0  0  0  0  0  0
   -2.0479   -0.3011    1.4484 C   0  0  0  0  0  0  0  0  0  0  0  0
   -0.8152   -0.3015    1.4540 H   0  0  0  0  0  0  0  0  0  0  0  0
   -2.5065   -0.1522    2.3696 H   0  0  0  0  0  0  0  0  0  0  0  0
   -2.5429    0.7851    0.3239 C   0  0  0  0  0  0  0  0  0  0  0  0
   -1.8209    1.4585   -0.0277 H   0  0  0  0  0  0  0  0  0  0  0  0
   -3.4269    1.3562    0.5759 H   0  0  0  0  0  0  0  0  0  0  0  0
   -2.7530   -0.1539   -0.8322 O   0  0  0  0  0  0  0  0  0  0  0  0
  1  3  1  0  0  0  0
  1  8  1  0  0  0  0
  1  2  1  0  0  0  0
  4  1  1  0  0  0  0
  5  4  1  0  0  0  0
  6  4  1  0  0  0  0
  8  9  1  0  0  0  0
  8 10  1  0  0  0  0
 11 13  1  0  0  0  0
 11  8  1  0  0  0  0
 12 11  1  0  0  0  0
 14  4  1  0  0  0  0
 14 11  1  0  0  0  0
M  END
$$$$
Title Card Required
 OpenBabel06272217483D

 14 13  0  0  0  0  0  0  0  0999 V2000
   -2.2739   -1.6344    0.8057 C   0  0  0  0  0  0  0  0  0  0  0  0
   -1.6312   -2.3409    1.4790 H   0  0  0  0  0  0  0  0  0  0  0  0
   -3.3068   -2.1815    0.9764 H   0  0  0  0  0  0  0  0  0  0  0  0
   -2.0402   -1.3792   -0.5501 C   0  0  0  0  0  0  0  0  0  0  0  0
   -2.6260   -2.2077   -1.0834 H   0  0  0  0  0  0  0  0  0  0  0  0
   -1.1596   -1.3408   -1.1694 H   0  0  0  0  0  0  0  0  0  0  0  0
    2.1351    0.4867   -0.1974 Br  0  0  0  0  0 15  0  0  0  0  0  0
   -2.0484   -0.3036    1.4487 C   0  0  0  0  0  0  0  0  0  0  0  0
   -0.8371   -0.2719    1.4676 H   0  0  0  0  0  0  0  0  0  0  0  0
   -2.4682   -0.1060    2.4012 H   0  0  0  0  0  0  0  0  0  0  0  0
   -2.5375    0.7820    0.3351 C   0  0  0  0  0  0  0  0  0  0  0  0
   -1.7800    1.4551    0.0741 H   0  0  0  0  0  0  0  0  0  0  0  0
   -3.4476    1.3707    0.5615 H   0  0  0  0  0  0  0  0  0  0  0  0
   -2.7701   -0.1451   -0.8526 O   0  0  0  0  0  0  0  0  0  0  0  0
  1  3  1  0  0  0  0
  1  8  1  0  0  0  0
  1  2  1  0  0  0  0
  4  1  1  0  0  0  0
  5  4  1  0  0  0  0
  6  4  1  0  0  0  0
  8  9  1  0  0  0  0
  8 10  1  0  0  0  0
 11 13  1  0  0  0  0
 11  8  1  0  0  0  0
 12 11  1  0  0  0  0
 14  4  1  0  0  0  0
 14 11  1  0  0  0  0
M  END
$$$$
Title Card Required
 OpenBabel06272217483D

 14 13  0  0  0  0  0  0  0  0999 V2000
   -2.2793   -1.6389    0.8008 C   0  0  0  0  0  0  0  0  0  0  0  0
   -1.6244   -2.3277    1.4598 H   0  0  0  0  0  0  0  0  0  0  0  0
   -3.2752   -2.1515    1.1095 H   0  0  0  0  0  0  0  0  0  0  0  0
   -2.0355   -1.4005   -0.5568 C   0  0  0  0  0  0  0  0  0  0  0  0
   -2.6561   -2.1487   -1.0795 H   0  0  0  0  0  0  0  0  0  0  0  0
   -1.1639   -1.3910   -1.1421 H   0  0  0  0  0  0  0  0  0  0  0  0
    2.1372    0.4879   -0.1969 Br  0  0  0  0  0 15  0  0  0  0  0  0
   -2.0463   -0.3037    1.4471 C   0  0  0  0  0  0  0  0  0  0  0  0
   -0.8867   -0.2370    1.4833 H   0  0  0  0  0  0  0  0  0  0  0  0
   -2.4363   -0.0610    2.4467 H   0  0  0  0  0  0  0  0  0  0  0  0
   -2.5329    0.7753    0.3455 C   0  0  0  0  0  0  0  0  0  0  0  0
   -1.7226    1.4639    0.1687 H   0  0  0  0  0  0  0  0  0  0  0  0
   -3.4686    1.3783    0.5474 H   0  0  0  0  0  0  0  0  0  0  0  0
   -2.7864   -0.1360   -0.8709 O   0  0  0  0  0  0  0  0  0  0  0  0
  1  3  1  0  0  0  0
  1  8  1  0  0  0  0
  1  2  1  0  0  0  0
  4  1  1  0  0  0  0
  5  4  1  0  0  0  0
  6  4  1  0  0  0  0
  8  9  1  0  0  0  0
  8 10  1  0  0  0  0
 11 13  1  0  0  0  0
 11  8  1  0  0  0  0
 12 11  1  0  0  0  0
 14  4  1  0  0  0  0
 14 11  1  0  0  0  0
M  END
$$$$
Title Card Required
 OpenBabel06272217483D

 14 13  0  0  0  0  0  0  0  0999 V2000
   -2.2850   -1.6458    0.8024 C   0  0  0  0  0  0  0  0  0  0  0  0
   -1.6191   -2.3087    1.4225 H   0  0  0  0  0  0  0  0  0  0  0  0
   -3.2350   -2.1083    1.2291 H   0  0  0  0  0  0  0  0  0  0  0  0
   -2.0346   -1.4210   -0.5682 C   0  0  0  0  0  0  0  0  0  0  0  0
   -2.6853   -2.0909   -1.0806 H   0  0  0  0  0  0  0  0  0  0  0  0
   -1.1420   -1.4384   -1.1109 H   0  0  0  0  0  0  0  0  0  0  0  0
    2.1393    0.4892   -0.1965 Br  0  0  0  0  0 15  0  0  0  0  0  0
   -2.0429   -0.3014    1.4449 C   0  0  0  0  0  0  0  0  0  0  0  0
   -0.9529   -0.1981    1.4995 H   0  0  0  0  0  0  0  0  0  0  0  0
   -2.4062   -0.0210    2.4921 H   0  0  0  0  0  0  0  0  0  0  0  0
   -2.5291    0.7659    0.3553 C   0  0  0  0  0  0  0  0  0  0  0  0
   -1.6593    1.4768    0.2574 H   0  0  0  0  0  0  0  0  0  0  0  0
   -3.4829    1.3760    0.5329 H   0  0  0  0  0  0  0  0  0  0  0  0
   -2.8016   -0.1265   -0.8872 O   0  0  0  0  0  0  0  0  0  0  0  0
  1  3  1  0  0  0  0
  1  2  1  0  0  0  0
  1  8  1  0  0  0  0
  4  1  1  0  0  0  0
  5  4  1  0  0  0  0
  6  4  1  0  0  0  0
  8  9  1  0  0  0  0
  8 10  1  0  0  0  0
 11 13  1  0  0  0  0
 11  8  1  0  0  0  0
 12 11  1  0  0  0  0
 14  4  1  0  0  0  0
 14 11  1  0  0  0  0
M  END
$$$$
Title Card Required
 OpenBabel06272217483D

 14 13  0  0  0  0  0  0  0  0999 V2000
   -2.2908   -1.6543    0.8106 C   0  0  0  0  0  0  0  0  0  0  0  0
   -1.6093   -2.2879    1.3698 H   0  0  0  0  0  0  0  0  0  0  0  0
   -3.1921   -2.0551    1.3342 H   0  0  0  0  0  0  0  0  0  0  0  0
   -2.0381   -1.4404   -0.5835 C   0  0  0  0  0  0  0  0  0  0  0  0
   -2.7209   -2.0433   -1.0940 H   0  0  0  0  0  0  0  0  0  0  0  0
   -1.0917   -1.4842   -1.0765 H   0  0  0  0  0  0  0  0  0  0  0  0
    2.1414    0.4904   -0.1960 Br  0  0  0  0  0 15  0  0  0  0  0  0
   -2.0399   -0.2964    1.4429 C   0  0  0  0  0  0  0  0  0  0  0  0
   -1.0185   -0.1542    1.5154 H   0  0  0  0  0  0  0  0  0  0  0  0
   -2.3751    0.0107    2.5262 H   0  0  0  0  0  0  0  0  0  0  0  0
   -2.5252    0.7548    0.3644 C   0  0  0  0  0  0  0  0  0  0  0  0
   -1.6017    1.4843    0.3418 H   0  0  0  0  0  0  0  0  0  0  0  0
   -3.4859    1.3616    0.5178 H   0  0  0  0  0  0  0  0  0  0  0  0
   -2.8158   -0.1163   -0.9018 O   0  0  0  0  0  0  0  0  0  0  0  0
  1  3  1  0  0  0  0
  1  2  1  0  0  0  0
  1  8  1  0  0  0  0
  4  1  1  0  0  0  0
  5  4  1  0  0  0  0
  6  4  1  0  0  0  0
  8  9  1  0  0  0  0
  8 10  1  0  0  0  0
 11 13  1  0  0  0  0
 11  8  1  0  0  0  0
 12 11  1  0  0  0  0
 14  4  1  0  0  0  0
 14 11  1  0  0  0  0
M  END
$$$$
Title Card Required
 OpenBabel06272217483D

 14 13  0  0  0  0  0  0  0  0999 V2000
   -2.2966   -1.6636    0.8255 C   0  0  0  0  0  0  0  0  0  0  0  0
   -1.5847   -2.2733    1.3067 H   0  0  0  0  0  0  0  0  0  0  0  0
   -3.1548   -1.9958    1.4231 H   0  0  0  0  0  0  0  0  0  0  0  0
   -2.0461   -1.4585   -0.6031 C   0  0  0  0  0  0  0  0  0  0  0  0
   -2.7694   -2.0151   -1.1279 H   0  0  0  0  0  0  0  0  0  0  0  0
   -1.0201   -1.5285   -1.0339 H   0  0  0  0  0  0  0  0  0  0  0  0
    2.1436    0.4918   -0.1954 Br  0  0  0  0  0 15  0  0  0  0  0  0
   -2.0395   -0.2884    1.4416 C   0  0  0  0  0  0  0  0  0  0  0  0
   -1.0539   -0.1025    1.5312 H   0  0  0  0  0  0  0  0  0  0  0  0
   -2.3430    0.0303    2.5396 H   0  0  0  0  0  0  0  0  0  0  0  0
   -2.5206    0.7423    0.3731 C   0  0  0  0  0  0  0  0  0  0  0  0
   -1.5623    1.4781    0.4192 H   0  0  0  0  0  0  0  0  0  0  0  0
   -3.4744    1.3334    0.5032 H   0  0  0  0  0  0  0  0  0  0  0  0
   -2.8286   -0.1050   -0.9146 O   0  0  0  0  0  0  0  0  0  0  0  0
  1  2  1  0  0  0  0
  1  3  1  0  0  0  0
  1  8  1  0  0  0  0
  4  1  1  0  0  0  0
  5  4  1  0  0  0  0
  6  4  1  0  0  0  0
  8  9  1  0  0  0  0
  8 10  1  0  0  0  0
 11 12  1  0  0  0  0
 11 13  1  0  0  0  0
 11  8  1  0  0  0  0
 14  4  1  0  0  0  0
 14 11  1  0  0  0  0
M  END
$$$$
Title Card Required
 OpenBabel06272217483D

 14 13  0  0  0  0  0  0  0  0999 V2000
   -2.3017   -1.6719    0.8459 C   0  0  0  0  0  0  0  0  0  0  0  0
   -1.5346   -2.2757    1.2437 H   0  0  0  0  0  0  0  0  0  0  0  0
   -3.1350   -1.9397    1.4904 H   0  0  0  0  0  0  0  0  0  0  0  0
   -2.0585   -1.4743   -0.6261 C   0  0  0  0  0  0  0  0  0  0  0  0
   -2.8253   -2.0103   -1.1830 H   0  0  0  0  0  0  0  0  0  0  0  0
   -0.9504   -1.5677   -0.9783 H   0  0  0  0  0  0  0  0  0  0  0  0
    2.1459    0.4932   -0.1948 Br  0  0  0  0  0 15  0  0  0  0  0  0
   -2.0434   -0.2778    1.4414 C   0  0  0  0  0  0  0  0  0  0  0  0
   -1.0332   -0.0438    1.5456 H   0  0  0  0  0  0  0  0  0  0  0  0
   -2.3149    0.0334    2.5259 H   0  0  0  0  0  0  0  0  0  0  0  0
   -2.5147    0.7293    0.3806 C   0  0  0  0  0  0  0  0  0  0  0  0
   -1.5542    1.4533    0.4793 H   0  0  0  0  0  0  0  0  0  0  0  0
   -3.4505    1.2942    0.4919 H   0  0  0  0  0  0  0  0  0  0  0  0
   -2.8386   -0.0933   -0.9244 O   0  0  0  0  0  0  0  0  0  0  0  0
  1  2  1  0  0  0  0
  1  8  1  0  0  0  0
  1  3  1  0  0  0  0
  4  1  1  0  0  0  0
  5  4  1  0  0  0  0
  6  4  1  0  0  0  0
  8  9  1  0  0  0  0
  8 10  1  0  0  0  0
 11 12  1  0  0  0  0
 11 13  1  0  0  0  0
 11  8  1  0  0  0  0
 14  4  1  0  0  0  0
 14 11  1  0  0  0  0
M  END
$$$$
Title Card Required
 OpenBabel06272217483D

 14 13  0  0  0  0  0  0  0  0999 V2000
   -2.3052   -1.6781    0.8696 C   0  0  0  0  0  0  0  0  0  0  0  0
   -1.4629   -2.2964    1.1871 H   0  0  0  0  0  0  0  0  0  0  0  0
   -3.1390   -1.8967    1.5339 H   0  0  0  0  0  0  0  0  0  0  0  0
   -2.0753   -1.4875   -0.6514 C   0  0  0  0  0  0  0  0  0  0  0  0
   -2.8713   -2.0226   -1.2487 H   0  0  0  0  0  0  0  0  0  0  0  0
   -0.9086   -1.5973   -0.9106 H   0  0  0  0  0  0  0  0  0  0  0  0
    2.1482    0.4947   -0.1942 Br  0  0  0  0  0 15  0  0  0  0  0  0
   -2.0491   -0.2653    1.4424 C   0  0  0  0  0  0  0  0  0  0  0  0
   -0.9728    0.0122    1.5552 H   0  0  0  0  0  0  0  0  0  0  0  0
   -2.2978    0.0204    2.4900 H   0  0  0  0  0  0  0  0  0  0  0  0
   -2.5074    0.7162    0.3861 C   0  0  0  0  0  0  0  0  0  0  0  0
   -1.5809    1.4128    0.5113 H   0  0  0  0  0  0  0  0  0  0  0  0
   -3.4254    1.2530    0.4877 H   0  0  0  0  0  0  0  0  0  0  0  0
   -2.8449   -0.0816   -0.9306 O   0  0  0  0  0  0  0  0  0  0  0  0
  1  2  1  0  0  0  0
  1  8  1  0  0  0  0
  1  3  1  0  0  0  0
  4  1  1  0  0  0  0
  5  4  1  0  0  0  0
  6  4  1  0  0  0  0
  8  9  1  0  0  0  0
  8 10  1  0  0  0  0
 11 13  1  0  0  0  0
 11 12  1  0  0  0  0
 11  8  1  0  0  0  0
 14  4  1  0  0  0  0
 14 11  1  0  0  0  0
M  END
$$$$
Title Card Required
 OpenBabel06272217483D

 14 13  0  0  0  0  0  0  0  0999 V2000
   -2.3053   -1.6828    0.8960 C   0  0  0  0  0  0  0  0  0  0  0  0
   -1.3880   -2.3251    1.1353 H   0  0  0  0  0  0  0  0  0  0  0  0
   -3.1655   -1.8725    1.5545 H   0  0  0  0  0  0  0  0  0  0  0  0
   -2.0973   -1.4986   -0.6786 C   0  0  0  0  0  0  0  0  0  0  0  0
   -2.8919   -2.0436   -1.3143 H   0  0  0  0  0  0  0  0  0  0  0  0
   -0.9104   -1.6148   -0.8350 H   0  0  0  0  0  0  0  0  0  0  0  0
    2.1506    0.4961   -0.1935 Br  0  0  0  0  0 15  0  0  0  0  0  0
   -2.0525   -0.2513    1.4438 C   0  0  0  0  0  0  0  0  0  0  0  0
   -0.9094    0.0531    1.5561 H   0  0  0  0  0  0  0  0  0  0  0  0
   -2.2990   -0.0046    2.4473 H   0  0  0  0  0  0  0  0  0  0  0  0
   -2.4985    0.7022    0.3891 C   0  0  0  0  0  0  0  0  0  0  0  0
   -1.6360    1.3655    0.5089 H   0  0  0  0  0  0  0  0  0  0  0  0
   -3.4139    1.2190    0.4943 H   0  0  0  0  0  0  0  0  0  0  0  0
   -2.8468   -0.0703   -0.9329 O   0  0  0  0  0  0  0  0  0  0  0  0
  1  2  1  0  0  0  0
  1  8  1  0  0  0  0
  1  3  1  0  0  0  0
  4  1  1  0  0  0  0
  5  4  1  0  0  0  0
  6  4  1  0  0  0  0
  8  9  1  0  0  0  0
  8 10  1  0  0  0  0
 11 13  1  0  0  0  0
 11 12  1  0  0  0  0
 11  8  1  0  0  0  0
 14  4  1  0  0  0  0
 14 11  1  0  0  0  0
M  END
$$$$
Title Card Required
 OpenBabel06272217483D

 14 13  0  0  0  0  0  0  0  0999 V2000
   -2.3008   -1.6866    0.9242 C   0  0  0  0  0  0  0  0  0  0  0  0
   -1.3361   -2.3480    1.0896 H   0  0  0  0  0  0  0  0  0  0  0  0
   -3.2072   -1.8721    1.5490 H   0  0  0  0  0  0  0  0  0  0  0  0
   -2.1258   -1.5073   -0.7065 C   0  0  0  0  0  0  0  0  0  0  0  0
   -2.8759   -2.0677   -1.3707 H   0  0  0  0  0  0  0  0  0  0  0  0
   -0.9636   -1.6173   -0.7619 H   0  0  0  0  0  0  0  0  0  0  0  0
    2.1530    0.4977   -0.1928 Br  0  0  0  0  0 15  0  0  0  0  0  0
   -2.0495   -0.2368    1.4440 C   0  0  0  0  0  0  0  0  0  0  0  0
   -0.8727    0.0682    1.5469 H   0  0  0  0  0  0  0  0  0  0  0  0
   -2.3276   -0.0339    2.4247 H   0  0  0  0  0  0  0  0  0  0  0  0
   -2.4902    0.6860    0.3884 C   0  0  0  0  0  0  0  0  0  0  0  0
   -1.6955    1.3334    0.4662 H   0  0  0  0  0  0  0  0  0  0  0  0
   -3.4255    1.1981    0.5149 H   0  0  0  0  0  0  0  0  0  0  0  0
   -2.8436   -0.0599   -0.9309 O   0  0  0  0  0  0  0  0  0  0  0  0
  1  2  1  0  0  0  0
  1  8  1  0  0  0  0
  1  3  1  0  0  0  0
  4  1  1  0  0  0  0
  5  4  1  0  0  0  0
  6  4  1  0  0  0  0
  8  9  1  0  0  0  0
  8 10  1  0  0  0  0
 11 12  1  0  0  0  0
 11 13  1  0  0  0  0
 11  8  1  0  0  0  0
 14  4  1  0  0  0  0
 14 11  1  0  0  0  0
M  END
$$$$
Title Card Required
 OpenBabel06272217483D

 14 13  0  0  0  0  0  0  0  0999 V2000
   -2.2922   -1.6896    0.9502 C   0  0  0  0  0  0  0  0  0  0  0  0
   -1.3271   -2.3560    1.0588 H   0  0  0  0  0  0  0  0  0  0  0  0
   -3.2468   -1.8950    1.5183 H   0  0  0  0  0  0  0  0  0  0  0  0
   -2.1578   -1.5120   -0.7304 C   0  0  0  0  0  0  0  0  0  0  0  0
   -2.8287   -2.0907   -1.4099 H   0  0  0  0  0  0  0  0  0  0  0  0
   -1.0504   -1.6047   -0.7099 H   0  0  0  0  0  0  0  0  0  0  0  0
    2.1553    0.4991   -0.1920 Br  0  0  0  0  0 15  0  0  0  0  0  0
   -2.0392   -0.2250    1.4423 C   0  0  0  0  0  0  0  0  0  0  0  0
   -0.8768    0.0550    1.5314 H   0  0  0  0  0  0  0  0  0  0  0  0
   -2.3821   -0.0586    2.4375 H   0  0  0  0  0  0  0  0  0  0  0  0
   -2.4872    0.6683    0.3834 C   0  0  0  0  0  0  0  0  0  0  0  0
   -1.7203    1.3455    0.3904 H   0  0  0  0  0  0  0  0  0  0  0  0
   -3.4503    1.1878    0.5461 H   0  0  0  0  0  0  0  0  0  0  0  0
   -2.8358   -0.0519   -0.9250 O   0  0  0  0  0  0  0  0  0  0  0  0
  1  2  1  0  0  0  0
  1  8  1  0  0  0  0
  1  3  1  0  0  0  0
  4  6  1  0  0  0  0
  4  1  1  0  0  0  0
  5  4  1  0  0  0  0
  8  9  1  0  0  0  0
  8 10  1  0  0  0  0
 11 12  1  0  0  0  0
 11 13  1  0  0  0  0
 11  8  1  0  0  0  0
 14  4  1  0  0  0  0
 14 11  1  0  0  0  0
M  END
$$$$
Title Card Required
 OpenBabel06272217483D

 14 13  0  0  0  0  0  0  0  0999 V2000
   -2.2825   -1.6920    0.9712 C   0  0  0  0  0  0  0  0  0  0  0  0
   -1.3526   -2.3521    1.0461 H   0  0  0  0  0  0  0  0  0  0  0  0
   -3.2720   -1.9314    1.4726 H   0  0  0  0  0  0  0  0  0  0  0  0
   -2.1902   -1.5125   -0.7478 C   0  0  0  0  0  0  0  0  0  0  0  0
   -2.7720   -2.1134   -1.4366 H   0  0  0  0  0  0  0  0  0  0  0  0
   -1.1339   -1.5829   -0.6855 H   0  0  0  0  0  0  0  0  0  0  0  0
    2.1572    0.5004   -0.1913 Br  0  0  0  0  0 15  0  0  0  0  0  0
   -2.0246   -0.2170    1.4405 C   0  0  0  0  0  0  0  0  0  0  0  0
   -0.9094    0.0244    1.5157 H   0  0  0  0  0  0  0  0  0  0  0  0
   -2.4447   -0.0773    2.4634 H   0  0  0  0  0  0  0  0  0  0  0  0
   -2.4903    0.6519    0.3754 C   0  0  0  0  0  0  0  0  0  0  0  0
   -1.7131    1.3916    0.2988 H   0  0  0  0  0  0  0  0  0  0  0  0
   -3.4701    1.1798    0.5798 H   0  0  0  0  0  0  0  0  0  0  0  0
   -2.8254   -0.0469   -0.9169 O   0  0  0  0  0  0  0  0  0  0  0  0
  1  2  1  0  0  0  0
  1  8  1  0  0  0  0
  1  3  1  0  0  0  0
  4  6  1  0  0  0  0
  4  1  1  0  0  0  0
  5  4  1  0  0  0  0
  8  9  1  0  0  0  0
  8 10  1  0  0  0  0
 11 13  1  0  0  0  0
 11  8  1  0  0  0  0
 12 11  1  0  0  0  0
 14  4  1  0  0  0  0
 14 11  1  0  0  0  0
M  END
$$$$
Title Card Required
 OpenBabel06272217483D

 14 13  0  0  0  0  0  0  0  0999 V2000
   -2.2731   -1.6936    0.9886 C   0  0  0  0  0  0  0  0  0  0  0  0
   -1.3969   -2.3444    1.0483 H   0  0  0  0  0  0  0  0  0  0  0  0
   -3.2822   -1.9761    1.4178 H   0  0  0  0  0  0  0  0  0  0  0  0
   -2.2242   -1.5088   -0.7597 C   0  0  0  0  0  0  0  0  0  0  0  0
   -2.7172   -2.1410   -1.4613 H   0  0  0  0  0  0  0  0  0  0  0  0
   -1.1943   -1.5546   -0.6831 H   0  0  0  0  0  0  0  0  0  0  0  0
    2.1590    0.5016   -0.1907 Br  0  0  0  0  0 15  0  0  0  0  0  0
   -2.0082   -0.2122    1.4401 C   0  0  0  0  0  0  0  0  0  0  0  0
   -0.9524   -0.0149    1.5029 H   0  0  0  0  0  0  0  0  0  0  0  0
   -2.5047   -0.0926    2.4807 H   0  0  0  0  0  0  0  0  0  0  0  0
   -2.4968    0.6379    0.3647 C   0  0  0  0  0  0  0  0  0  0  0  0
   -1.7005    1.4456    0.1986 H   0  0  0  0  0  0  0  0  0  0  0  0
   -3.4788    1.1687    0.6132 H   0  0  0  0  0  0  0  0  0  0  0  0
   -2.8130   -0.0444   -0.9073 O   0  0  0  0  0  0  0  0  0  0  0  0
  1  2  1  0  0  0  0
  1  3  1  0  0  0  0
  1  8  1  0  0  0  0
  4  6  1  0  0  0  0
  4  1  1  0  0  0  0
  5  4  1  0  0  0  0
  8  9  1  0  0  0  0
  8 10  1  0  0  0  0
 11 13  1  0  0  0  0
 11  8  1  0  0  0  0
 12 11  1  0  0  0  0
 14  4  1  0  0  0  0
 14 11  1  0  0  0  0
M  END
$$$$
Title Card Required
 OpenBabel06272217483D

 14 13  0  0  0  0  0  0  0  0999 V2000
   -2.2650   -1.6940    1.0030 C   0  0  0  0  0  0  0  0  0  0  0  0
   -1.4457   -2.3423    1.0649 H   0  0  0  0  0  0  0  0  0  0  0  0
   -3.2778   -2.0275    1.3558 H   0  0  0  0  0  0  0  0  0  0  0  0
   -2.2615   -1.5007   -0.7669 C   0  0  0  0  0  0  0  0  0  0  0  0
   -2.6691   -2.1772   -1.4905 H   0  0  0  0  0  0  0  0  0  0  0  0
   -1.2224   -1.5195   -0.7001 H   0  0  0  0  0  0  0  0  0  0  0  0
    2.1607    0.5027   -0.1900 Br  0  0  0  0  0 15  0  0  0  0  0  0
   -1.9920   -0.2104    1.4417 C   0  0  0  0  0  0  0  0  0  0  0  0
   -0.9838   -0.0572    1.4957 H   0  0  0  0  0  0  0  0  0  0  0  0
   -2.5560   -0.1052    2.4782 H   0  0  0  0  0  0  0  0  0  0  0  0
   -2.5055    0.6273    0.3509 C   0  0  0  0  0  0  0  0  0  0  0  0
   -1.7005    1.4895    0.0946 H   0  0  0  0  0  0  0  0  0  0  0  0
   -3.4749    1.1524    0.6454 H   0  0  0  0  0  0  0  0  0  0  0  0
   -2.7988   -0.0443   -0.8960 O   0  0  0  0  0  0  0  0  0  0  0  0
  1  2  1  0  0  0  0
  1  3  1  0  0  0  0
  1  8  1  0  0  0  0
  4  6  1  0  0  0  0
  4  1  1  0  0  0  0
  5  4  1  0  0  0  0
  8  9  1  0  0  0  0
  8 10  1  0  0  0  0
 11 13  1  0  0  0  0
 11  8  1  0  0  0  0
 12 11  1  0  0  0  0
 14  4  1  0  0  0  0
 14 11  1  0  0  0  0
M  END
$$$$
Title Card Required
 OpenBabel06272217483D

 14 13  0  0  0  0  0  0  0  0999 V2000
   -2.2599   -1.6926    1.0139 C   0  0  0  0  0  0  0  0  0  0  0  0
   -1.4809   -2.3583    1.0957 H   0  0  0  0  0  0  0  0  0  0  0  0
   -3.2606   -2.0830    1.2915 H   0  0  0  0  0  0  0  0  0  0  0  0
   -2.3014   -1.4881   -0.7690 C   0  0  0  0  0  0  0  0  0  0  0  0
   -2.6306   -2.2190   -1.5233 H   0  0  0  0  0  0  0  0  0  0  0  0
   -1.2214   -1.4773   -0.7361 H   0  0  0  0  0  0  0  0  0  0  0  0
    2.1625    0.5039   -0.1893 Br  0  0  0  0  0 15  0  0  0  0  0  0
   -1.9791   -0.2122    1.4452 C   0  0  0  0  0  0  0  0  0  0  0  0
   -0.9756   -0.0959    1.4976 H   0  0  0  0  0  0  0  0  0  0  0  0
   -2.5913   -0.1140    2.4504 H   0  0  0  0  0  0  0  0  0  0  0  0
   -2.5150    0.6207    0.3338 C   0  0  0  0  0  0  0  0  0  0  0  0
   -1.7224    1.5114   -0.0040 H   0  0  0  0  0  0  0  0  0  0  0  0
   -3.4592    1.1308    0.6743 H   0  0  0  0  0  0  0  0  0  0  0  0
   -2.7831   -0.0470   -0.8834 O   0  0  0  0  0  0  0  0  0  0  0  0
  1  2  1  0  0  0  0
  1  3  1  0  0  0  0
  1  8  1  0  0  0  0
  4  6  1  0  0  0  0
  4  1  1  0  0  0  0
  5  4  1  0  0  0  0
  8  9  1  0  0  0  0
  8 10  1  0  0  0  0
 11 13  1  0  0  0  0
 11  8  1  0  0  0  0
 12 11  1  0  0  0  0
 14  4  1  0  0  0  0
 14 11  1  0  0  0  0
M  END
$$$$
Title Card Required
 OpenBabel06272217483D

 14 13  0  0  0  0  0  0  0  0999 V2000
   -2.2584   -1.6889    1.0203 C   0  0  0  0  0  0  0  0  0  0  0  0
   -1.4916   -2.3966    1.1378 H   0  0  0  0  0  0  0  0  0  0  0  0
   -3.2366   -2.1370    1.2326 H   0  0  0  0  0  0  0  0  0  0  0  0
   -2.3400   -1.4723   -0.7667 C   0  0  0  0  0  0  0  0  0  0  0  0
   -2.6032   -2.2551   -1.5506 H   0  0  0  0  0  0  0  0  0  0  0  0
   -1.2096   -1.4311   -0.7879 H   0  0  0  0  0  0  0  0  0  0  0  0
    2.1641    0.5051   -0.1886 Br  0  0  0  0  0 15  0  0  0  0  0  0
   -1.9709   -0.2174    1.4499 C   0  0  0  0  0  0  0  0  0  0  0  0
   -0.9221   -0.1271    1.5096 H   0  0  0  0  0  0  0  0  0  0  0  0
   -2.6061   -0.1174    2.4012 H   0  0  0  0  0  0  0  0  0  0  0  0
   -2.5239    0.6187    0.3148 C   0  0  0  0  0  0  0  0  0  0  0  0
   -1.7669    1.5066   -0.0849 H   0  0  0  0  0  0  0  0  0  0  0  0
   -3.4378    1.1070    0.6975 H   0  0  0  0  0  0  0  0  0  0  0  0
   -2.7673   -0.0527   -0.8706 O   0  0  0  0  0  0  0  0  0  0  0  0
  1  2  1  0  0  0  0
  1  3  1  0  0  0  0
  1  8  1  0  0  0  0
  4  1  1  0  0  0  0
  5  4  1  0  0  0  0
  6  4  1  0  0  0  0
  8  9  1  0  0  0  0
  8 10  1  0  0  0  0
 11 13  1  0  0  0  0
 11  8  1  0  0  0  0
 12 11  1  0  0  0  0
 14  4  1  0  0  0  0
 14 11  1  0  0  0  0
M  END
$$$$
Title Card Required
 OpenBabel06272217483D

 14 13  0  0  0  0  0  0  0  0999 V2000
   -2.2596   -1.6842    1.0220 C   0  0  0  0  0  0  0  0  0  0  0  0
   -1.4850   -2.4477    1.1870 H   0  0  0  0  0  0  0  0  0  0  0  0
   -3.2129   -2.1873    1.1837 H   0  0  0  0  0  0  0  0  0  0  0  0
   -2.3749   -1.4547   -0.7608 C   0  0  0  0  0  0  0  0  0  0  0  0
   -2.5869   -2.2754   -1.5638 H   0  0  0  0  0  0  0  0  0  0  0  0
   -1.2066   -1.3843   -0.8512 H   0  0  0  0  0  0  0  0  0  0  0  0
    2.1658    0.5062   -0.1879 Br  0  0  0  0  0 15  0  0  0  0  0  0
   -1.9656   -0.2253    1.4547 C   0  0  0  0  0  0  0  0  0  0  0  0
   -0.8477   -0.1522    1.5301 H   0  0  0  0  0  0  0  0  0  0  0  0
   -2.6030   -0.1138    2.3405 H   0  0  0  0  0  0  0  0  0  0  0  0
   -2.5310    0.6207    0.2946 C   0  0  0  0  0  0  0  0  0  0  0  0
   -1.8304    1.4780   -0.1432 H   0  0  0  0  0  0  0  0  0  0  0  0
   -3.4191    1.0846    0.7152 H   0  0  0  0  0  0  0  0  0  0  0  0
   -2.7521   -0.0613   -0.8585 O   0  0  0  0  0  0  0  0  0  0  0  0
  1  3  1  0  0  0  0
  1  2  1  0  0  0  0
  1  8  1  0  0  0  0
  4  1  1  0  0  0  0
  5  4  1  0  0  0  0
  6  4  1  0  0  0  0
  8  9  1  0  0  0  0
  8 10  1  0  0  0  0
 11 13  1  0  0  0  0
 11  8  1  0  0  0  0
 12 11  1  0  0  0  0
 14  4  1  0  0  0  0
 14 11  1  0  0  0  0
M  END
$$$$
Title Card Required
 OpenBabel06272217483D

 14 13  0  0  0  0  0  0  0  0999 V2000
   -2.2617   -1.6798    1.0188 C   0  0  0  0  0  0  0  0  0  0  0  0
   -1.4755   -2.4968    1.2401 H   0  0  0  0  0  0  0  0  0  0  0  0
   -3.1944   -2.2337    1.1464 H   0  0  0  0  0  0  0  0  0  0  0  0
   -2.4059   -1.4351   -0.7515 C   0  0  0  0  0  0  0  0  0  0  0  0
   -2.5841   -2.2722   -1.5567 H   0  0  0  0  0  0  0  0  0  0  0  0
   -1.2253   -1.3392   -0.9246 H   0  0  0  0  0  0  0  0  0  0  0  0
    2.1675    0.5074   -0.1871 Br  0  0  0  0  0 15  0  0  0  0  0  0
   -1.9597   -0.2361    1.4585 C   0  0  0  0  0  0  0  0  0  0  0  0
   -0.7798   -0.1742    1.5574 H   0  0  0  0  0  0  0  0  0  0  0  0
   -2.5901   -0.1001    2.2825 H   0  0  0  0  0  0  0  0  0  0  0  0
   -2.5359    0.6262    0.2731 C   0  0  0  0  0  0  0  0  0  0  0  0
   -1.9094    1.4316   -0.1784 H   0  0  0  0  0  0  0  0  0  0  0  0
   -3.4112    1.0659    0.7292 H   0  0  0  0  0  0  0  0  0  0  0  0
   -2.7378   -0.0736   -0.8473 O   0  0  0  0  0  0  0  0  0  0  0  0
  1  3  1  0  0  0  0
  1  2  1  0  0  0  0
  1  8  1  0  0  0  0
  4  1  1  0  0  0  0
  5  4  1  0  0  0  0
  6  4  1  0  0  0  0
  8  9  1  0  0  0  0
  8 10  1  0  0  0  0
 11 13  1  0  0  0  0
 11  8  1  0  0  0  0
 12 11  1  0  0  0  0
 14  4  1  0  0  0  0
 14 11  1  0  0  0  0
M  END
$$$$
Title Card Required
 OpenBabel06272217483D

 14 13  0  0  0  0  0  0  0  0999 V2000
   -2.2638   -1.6776    1.0093 C   0  0  0  0  0  0  0  0  0  0  0  0
   -1.4769   -2.5257    1.2914 H   0  0  0  0  0  0  0  0  0  0  0  0
   -3.1848   -2.2727    1.1254 H   0  0  0  0  0  0  0  0  0  0  0  0
   -2.4312   -1.4136   -0.7380 C   0  0  0  0  0  0  0  0  0  0  0  0
   -2.6034   -2.2368   -1.5218 H   0  0  0  0  0  0  0  0  0  0  0  0
   -1.2769   -1.3010   -1.0062 H   0  0  0  0  0  0  0  0  0  0  0  0
    2.1693    0.5087   -0.1862 Br  0  0  0  0  0 15  0  0  0  0  0  0
   -1.9494   -0.2506    1.4587 C   0  0  0  0  0  0  0  0  0  0  0  0
   -0.7445   -0.1938    1.5906 H   0  0  0  0  0  0  0  0  0  0  0  0
   -2.5809   -0.0687    2.2520 H   0  0  0  0  0  0  0  0  0  0  0  0
   -2.5386    0.6345    0.2513 C   0  0  0  0  0  0  0  0  0  0  0  0
   -1.9908    1.3864   -0.1915 H   0  0  0  0  0  0  0  0  0  0  0  0
   -3.4227    1.0524    0.7394 H   0  0  0  0  0  0  0  0  0  0  0  0
   -2.7250   -0.0906   -0.8376 O   0  0  0  0  0  0  0  0  0  0  0  0
  1  3  1  0  0  0  0
  1  2  1  0  0  0  0
  1  8  1  0  0  0  0
  4  1  1  0  0  0  0
  5  4  1  0  0  0  0
  6  4  1  0  0  0  0
  8  9  1  0  0  0  0
  8 10  1  0  0  0  0
 11 13  1  0  0  0  0
 11  8  1  0  0  0  0
 12 11  1  0  0  0  0
 14  4  1  0  0  0  0
 14 11  1  0  0  0  0
M  END
$$$$
Title Card Required
 OpenBabel06272217483D

 14 13  0  0  0  0  0  0  0  0999 V2000
   -2.2651   -1.6801    0.9929 C   0  0  0  0  0  0  0  0  0  0  0  0
   -1.4991   -2.5151    1.3270 H   0  0  0  0  0  0  0  0  0  0  0  0
   -3.1861   -2.2923    1.1282 H   0  0  0  0  0  0  0  0  0  0  0  0
   -2.4457   -1.3933   -0.7203 C   0  0  0  0  0  0  0  0  0  0  0  0
   -2.6580   -2.1715   -1.4607 H   0  0  0  0  0  0  0  0  0  0  0  0
   -1.3580   -1.2832   -1.0830 H   0  0  0  0  0  0  0  0  0  0  0  0
    2.1713    0.5101   -0.1852 Br  0  0  0  0  0 15  0  0  0  0  0  0
   -1.9334   -0.2679    1.4536 C   0  0  0  0  0  0  0  0  0  0  0  0
   -0.7648   -0.2089    1.6237 H   0  0  0  0  0  0  0  0  0  0  0  0
   -2.5848   -0.0166    2.2706 H   0  0  0  0  0  0  0  0  0  0  0  0
   -2.5411    0.6426    0.2344 C   0  0  0  0  0  0  0  0  0  0  0  0
   -2.0333    1.3939   -0.1950 H   0  0  0  0  0  0  0  0  0  0  0  0
   -3.4544    1.0430    0.7405 H   0  0  0  0  0  0  0  0  0  0  0  0
   -2.7166   -0.1110   -0.8315 O   0  0  0  0  0  0  0  0  0  0  0  0
  1  3  1  0  0  0  0
  1  2  1  0  0  0  0
  1  8  1  0  0  0  0
  4  1  1  0  0  0  0
  5  4  1  0  0  0  0
  6  4  1  0  0  0  0
  8  9  1  0  0  0  0
  8 10  1  0  0  0  0
 11 13  1  0  0  0  0
 11  8  1  0  0  0  0
 12 11  1  0  0  0  0
 14  4  1  0  0  0  0
 14 11  1  0  0  0  0
M  END
$$$$
Title Card Required
 OpenBabel06272217483D

 14 13  0  0  0  0  0  0  0  0999 V2000
   -2.2660   -1.6865    0.9732 C   0  0  0  0  0  0  0  0  0  0  0  0
   -1.5332   -2.4715    1.3371 H   0  0  0  0  0  0  0  0  0  0  0  0
   -3.1943   -2.2853    1.1517 H   0  0  0  0  0  0  0  0  0  0  0  0
   -2.4474   -1.3791   -0.7008 C   0  0  0  0  0  0  0  0  0  0  0  0
   -2.7461   -2.1090   -1.3999 H   0  0  0  0  0  0  0  0  0  0  0  0
   -1.4340   -1.2935   -1.1389 H   0  0  0  0  0  0  0  0  0  0  0  0
    2.1730    0.5114   -0.1842 Br  0  0  0  0  0 15  0  0  0  0  0  0
   -1.9170   -0.2833    1.4461 C   0  0  0  0  0  0  0  0  0  0  0  0
   -0.8245   -0.2171    1.6479 H   0  0  0  0  0  0  0  0  0  0  0  0
   -2.5843    0.0371    2.3104 H   0  0  0  0  0  0  0  0  0  0  0  0
   -2.5445    0.6477    0.2267 C   0  0  0  0  0  0  0  0  0  0  0  0
   -2.0208    1.4673   -0.1989 H   0  0  0  0  0  0  0  0  0  0  0  0
   -3.4895    1.0341    0.7279 H   0  0  0  0  0  0  0  0  0  0  0  0
   -2.7147   -0.1287   -0.8299 O   0  0  0  0  0  0  0  0  0  0  0  0
  1  3  1  0  0  0  0
  1  2  1  0  0  0  0
  1  8  1  0  0  0  0
  4  1  1  0  0  0  0
  5  4  1  0  0  0  0
  6  4  1  0  0  0  0
  8  9  1  0  0  0  0
  8 10  1  0  0  0  0
 11 13  1  0  0  0  0
 11  8  1  0  0  0  0
 12 11  1  0  0  0  0
 14  4  1  0  0  0  0
 14 11  1  0  0  0  0
M  END
$$$$
Title Card Required
 OpenBabel06272217483D

 14 13  0  0  0  0  0  0  0  0999 V2000
   -2.2676   -1.6947    0.9515 C   0  0  0  0  0  0  0  0  0  0  0  0
   -1.5642   -2.4166    1.3290 H   0  0  0  0  0  0  0  0  0  0  0  0
   -3.2058   -2.2570    1.1871 H   0  0  0  0  0  0  0  0  0  0  0  0
   -2.4399   -1.3712   -0.6796 C   0  0  0  0  0  0  0  0  0  0  0  0
   -2.8654   -2.0665   -1.3515 H   0  0  0  0  0  0  0  0  0  0  0  0
   -1.4851   -1.3280   -1.1801 H   0  0  0  0  0  0  0  0  0  0  0  0
    2.1745    0.5125   -0.1834 Br  0  0  0  0  0 15  0  0  0  0  0  0
   -1.9044   -0.2961    1.4387 C   0  0  0  0  0  0  0  0  0  0  0  0
   -0.8874   -0.2196    1.6655 H   0  0  0  0  0  0  0  0  0  0  0  0
   -2.5649    0.0802    2.3417 H   0  0  0  0  0  0  0  0  0  0  0  0
   -2.5476    0.6524    0.2249 C   0  0  0  0  0  0  0  0  0  0  0  0
   -1.9873    1.5600   -0.1927 H   0  0  0  0  0  0  0  0  0  0  0  0
   -3.5184    1.0229    0.7030 H   0  0  0  0  0  0  0  0  0  0  0  0
   -2.7180   -0.1417   -0.8311 O   0  0  0  0  0  0  0  0  0  0  0  0
  1  3  1  0  0  0  0
  1  2  1  0  0  0  0
  1  8  1  0  0  0  0
  4  1  1  0  0  0  0
  5  4  1  0  0  0  0
  6  4  1  0  0  0  0
  8  9  1  0  0  0  0
  8 10  1  0  0  0  0
 11 13  1  0  0  0  0
 11  8  1  0  0  0  0
 12 11  1  0  0  0  0
 14  4  1  0  0  0  0
 14 11  1  0  0  0  0
M  END
$$$$
Title Card Required
 OpenBabel06272217483D

 14 13  0  0  0  0  0  0  0  0999 V2000
   -2.2710   -1.7025    0.9277 C   0  0  0  0  0  0  0  0  0  0  0  0
   -1.5774   -2.3700    1.3113 H   0  0  0  0  0  0  0  0  0  0  0  0
   -3.2191   -2.2113    1.2296 H   0  0  0  0  0  0  0  0  0  0  0  0
   -2.4261   -1.3699   -0.6567 C   0  0  0  0  0  0  0  0  0  0  0  0
   -3.0110   -2.0411   -1.3085 H   0  0  0  0  0  0  0  0  0  0  0  0
   -1.5055   -1.3845   -1.2142 H   0  0  0  0  0  0  0  0  0  0  0  0
    2.1759    0.5136   -0.1825 Br  0  0  0  0  0 15  0  0  0  0  0  0
   -1.8981   -0.3061    1.4317 C   0  0  0  0  0  0  0  0  0  0  0  0
   -0.9200   -0.2159    1.6817 H   0  0  0  0  0  0  0  0  0  0  0  0
   -2.5245    0.1080    2.3546 H   0  0  0  0  0  0  0  0  0  0  0  0
   -2.5494    0.6590    0.2268 C   0  0  0  0  0  0  0  0  0  0  0  0
   -1.9567    1.6377   -0.1680 H   0  0  0  0  0  0  0  0  0  0  0  0
   -3.5381    1.0091    0.6679 H   0  0  0  0  0  0  0  0  0  0  0  0
   -2.7254   -0.1495   -0.8341 O   0  0  0  0  0  0  0  0  0  0  0  0
  1  3  1  0  0  0  0
  1  2  1  0  0  0  0
  1  8  1  0  0  0  0
  4  1  1  0  0  0  0
  5  4  1  0  0  0  0
  6  4  1  0  0  0  0
  8  9  1  0  0  0  0
  8 10  1  0  0  0  0
 11 13  1  0  0  0  0
 11  8  1  0  0  0  0
 12 11  1  0  0  0  0
 14  4  1  0  0  0  0
 14 11  1  0  0  0  0
M  END
$$$$
Title Card Required
 OpenBabel06272217483D

 14 13  0  0  0  0  0  0  0  0999 V2000
   -2.2767   -1.7083    0.9030 C   0  0  0  0  0  0  0  0  0  0  0  0
   -1.5626   -2.3468    1.2918 H   0  0  0  0  0  0  0  0  0  0  0  0
   -3.2321   -2.1545    1.2731 H   0  0  0  0  0  0  0  0  0  0  0  0
   -2.4094   -1.3757   -0.6346 C   0  0  0  0  0  0  0  0  0  0  0  0
   -3.1605   -2.0214   -1.2586 H   0  0  0  0  0  0  0  0  0  0  0  0
   -1.5003   -1.4579   -1.2424 H   0  0  0  0  0  0  0  0  0  0  0  0
    2.1773    0.5147   -0.1817 Br  0  0  0  0  0 15  0  0  0  0  0  0
   -1.8989   -0.3132    1.4249 C   0  0  0  0  0  0  0  0  0  0  0  0
   -0.9065   -0.2062    1.6982 H   0  0  0  0  0  0  0  0  0  0  0  0
   -2.4698    0.1181    2.3490 H   0  0  0  0  0  0  0  0  0  0  0  0
   -2.5492    0.6678    0.2309 C   0  0  0  0  0  0  0  0  0  0  0  0
   -1.9391    1.6836   -0.1260 H   0  0  0  0  0  0  0  0  0  0  0  0
   -3.5485    0.9946    0.6278 H   0  0  0  0  0  0  0  0  0  0  0  0
   -2.7355   -0.1521   -0.8380 O   0  0  0  0  0  0  0  0  0  0  0  0
  1  3  1  0  0  0  0
  1  2  1  0  0  0  0
  1  8  1  0  0  0  0
  4  1  1  0  0  0  0
  5  4  1  0  0  0  0
  6  4  1  0  0  0  0
  8  9  1  0  0  0  0
  8 10  1  0  0  0  0
 11 13  1  0  0  0  0
 11  8  1  0  0  0  0
 12 11  1  0  0  0  0
 14  4  1  0  0  0  0
 14 11  1  0  0  0  0
M  END
$$$$
Title Card Required
 OpenBabel06272217483D

 14 13  0  0  0  0  0  0  0  0999 V2000
   -2.2843   -1.7116    0.8789 C   0  0  0  0  0  0  0  0  0  0  0  0
   -1.5251   -2.3461    1.2719 H   0  0  0  0  0  0  0  0  0  0  0  0
   -3.2425   -2.0923    1.3129 H   0  0  0  0  0  0  0  0  0  0  0  0
   -2.3923   -1.3875   -0.6152 C   0  0  0  0  0  0  0  0  0  0  0  0
   -3.2923   -1.9995   -1.1952 H   0  0  0  0  0  0  0  0  0  0  0  0
   -1.4837   -1.5414   -1.2621 H   0  0  0  0  0  0  0  0  0  0  0  0
    2.1785    0.5156   -0.1809 Br  0  0  0  0  0 15  0  0  0  0  0  0
   -1.9044   -0.3173    1.4184 C   0  0  0  0  0  0  0  0  0  0  0  0
   -0.8631   -0.1932    1.7101 H   0  0  0  0  0  0  0  0  0  0  0  0
   -2.4103    0.1127    2.3309 H   0  0  0  0  0  0  0  0  0  0  0  0
   -2.5473    0.6781    0.2365 C   0  0  0  0  0  0  0  0  0  0  0  0
   -1.9356    1.6964   -0.0724 H   0  0  0  0  0  0  0  0  0  0  0  0
   -3.5525    0.9821    0.5877 H   0  0  0  0  0  0  0  0  0  0  0  0
   -2.7469   -0.1507   -0.8422 O   0  0  0  0  0  0  0  0  0  0  0  0
  1  2  1  0  0  0  0
  1  3  1  0  0  0  0
  1  8  1  0  0  0  0
  4  1  1  0  0  0  0
  5  4  1  0  0  0  0
  6  4  1  0  0  0  0
  8  9  1  0  0  0  0
  8 10  1  0  0  0  0
 11 13  1  0  0  0  0
 11  8  1  0  0  0  0
 12 11  1  0  0  0  0
 14  4  1  0  0  0  0
 14 11  1  0  0  0  0
M  END
$$$$
Title Card Required
 OpenBabel06272217483D

 14 13  0  0  0  0  0  0  0  0999 V2000
   -2.2927   -1.7133    0.8561 C   0  0  0  0  0  0  0  0  0  0  0  0
   -1.4780   -2.3582    1.2473 H   0  0  0  0  0  0  0  0  0  0  0  0
   -3.2495   -2.0270    1.3473 H   0  0  0  0  0  0  0  0  0  0  0  0
   -2.3762   -1.4044   -0.5990 C   0  0  0  0  0  0  0  0  0  0  0  0
   -3.3983   -1.9732   -1.1163 H   0  0  0  0  0  0  0  0  0  0  0  0
   -1.4676   -1.6315   -1.2705 H   0  0  0  0  0  0  0  0  0  0  0  0
    2.1797    0.5166   -0.1801 Br  0  0  0  0  0 15  0  0  0  0  0  0
   -1.9117   -0.3188    1.4119 C   0  0  0  0  0  0  0  0  0  0  0  0
   -0.8128   -0.1798    1.7110 H   0  0  0  0  0  0  0  0  0  0  0  0
   -2.3527    0.0957    2.3091 H   0  0  0  0  0  0  0  0  0  0  0  0
   -2.5437    0.6894    0.2434 C   0  0  0  0  0  0  0  0  0  0  0  0
   -1.9439    1.6806   -0.0103 H   0  0  0  0  0  0  0  0  0  0  0  0
   -3.5546    0.9731    0.5507 H   0  0  0  0  0  0  0  0  0  0  0  0
   -2.7590   -0.1464   -0.8467 O   0  0  0  0  0  0  0  0  0  0  0  0
  1  2  1  0  0  0  0
  1  3  1  0  0  0  0
  1  8  1  0  0  0  0
  4  1  1  0  0  0  0
  5  4  1  0  0  0  0
  6  4  1  0  0  0  0
  8  9  1  0  0  0  0
  8 10  1  0  0  0  0
 11 13  1  0  0  0  0
 11  8  1  0  0  0  0
 12 11  1  0  0  0  0
 14  4  1  0  0  0  0
 14 11  1  0  0  0  0
M  END
$$$$
Title Card Required
 OpenBabel06272217483D

 14 13  0  0  0  0  0  0  0  0999 V2000
   -2.3009   -1.7141    0.8352 C   0  0  0  0  0  0  0  0  0  0  0  0
   -1.4340   -2.3738    1.2125 H   0  0  0  0  0  0  0  0  0  0  0  0
   -3.2519   -1.9594    1.3749 H   0  0  0  0  0  0  0  0  0  0  0  0
   -2.3616   -1.4259   -0.5863 C   0  0  0  0  0  0  0  0  0  0  0  0
   -3.4737   -1.9428   -1.0208 H   0  0  0  0  0  0  0  0  0  0  0  0
   -1.4601   -1.7270   -1.2645 H   0  0  0  0  0  0  0  0  0  0  0  0
    2.1809    0.5176   -0.1793 Br  0  0  0  0  0 15  0  0  0  0  0  0
   -1.9186   -0.3179    1.4042 C   0  0  0  0  0  0  0  0  0  0  0  0
   -0.7715   -0.1682    1.6946 H   0  0  0  0  0  0  0  0  0  0  0  0
   -2.3036    0.0708    2.2954 H   0  0  0  0  0  0  0  0  0  0  0  0
   -2.5383    0.7015    0.2518 C   0  0  0  0  0  0  0  0  0  0  0  0
   -1.9604    1.6410    0.0589 H   0  0  0  0  0  0  0  0  0  0  0  0
   -3.5582    0.9695    0.5190 H   0  0  0  0  0  0  0  0  0  0  0  0
   -2.7713   -0.1398   -0.8515 O   0  0  0  0  0  0  0  0  0  0  0  0
  1  2  1  0  0  0  0
  1  3  1  0  0  0  0
  1  8  1  0  0  0  0
  4  1  1  0  0  0  0
  5  4  1  0  0  0  0
  6  4  1  0  0  0  0
  8  9  1  0  0  0  0
  8 10  1  0  0  0  0
 11 13  1  0  0  0  0
 11  8  1  0  0  0  0
 12 11  1  0  0  0  0
 14  4  1  0  0  0  0
 14 11  1  0  0  0  0
M  END
$$$$
Title Card Required
 OpenBabel06272217483D

 14 13  0  0  0  0  0  0  0  0999 V2000
   -2.3077   -1.7141    0.8175 C   0  0  0  0  0  0  0  0  0  0  0  0
   -1.4056   -2.3860    1.1633 H   0  0  0  0  0  0  0  0  0  0  0  0
   -3.2489   -1.8920    1.3932 H   0  0  0  0  0  0  0  0  0  0  0  0
   -2.3498   -1.4521   -0.5782 C   0  0  0  0  0  0  0  0  0  0  0  0
   -3.5099   -1.9102   -0.9097 H   0  0  0  0  0  0  0  0  0  0  0  0
   -1.4680   -1.8253   -1.2406 H   0  0  0  0  0  0  0  0  0  0  0  0
    2.1822    0.5186   -0.1784 Br  0  0  0  0  0 15  0  0  0  0  0  0
   -1.9234   -0.3143    1.3939 C   0  0  0  0  0  0  0  0  0  0  0  0
   -0.7511   -0.1598    1.6546 H   0  0  0  0  0  0  0  0  0  0  0  0
   -2.2707    0.0415    2.3052 H   0  0  0  0  0  0  0  0  0  0  0  0
   -2.5318    0.7130    0.2622 C   0  0  0  0  0  0  0  0  0  0  0  0
   -1.9761    1.5892    0.1309 H   0  0  0  0  0  0  0  0  0  0  0  0
   -3.5657    0.9735    0.4958 H   0  0  0  0  0  0  0  0  0  0  0  0
   -2.7836   -0.1314   -0.8566 O   0  0  0  0  0  0  0  0  0  0  0  0
  1  2  1  0  0  0  0
  1  3  1  0  0  0  0
  1  8  1  0  0  0  0
  4  1  1  0  0  0  0
  5  4  1  0  0  0  0
  6  4  1  0  0  0  0
  8  9  1  0  0  0  0
  8 10  1  0  0  0  0
 11 13  1  0  0  0  0
 11  8  1  0  0  0  0
 12 11  1  0  0  0  0
 14  4  1  0  0  0  0
 14 11  1  0  0  0  0
M  END
$$$$
Title Card Required
 OpenBabel06272217483D

 14 13  0  0  0  0  0  0  0  0999 V2000
   -2.3116   -1.7135    0.8059 C   0  0  0  0  0  0  0  0  0  0  0  0
   -1.4047   -2.3897    1.1009 H   0  0  0  0  0  0  0  0  0  0  0  0
   -3.2413   -1.8319    1.3988 H   0  0  0  0  0  0  0  0  0  0  0  0
   -2.3431   -1.4817   -0.5763 C   0  0  0  0  0  0  0  0  0  0  0  0
   -3.4967   -1.8806   -0.7921 H   0  0  0  0  0  0  0  0  0  0  0  0
   -1.4951   -1.9193   -1.1991 H   0  0  0  0  0  0  0  0  0  0  0  0
    2.1835    0.5197   -0.1774 Br  0  0  0  0  0 15  0  0  0  0  0  0
   -1.9247   -0.3080    1.3804 C   0  0  0  0  0  0  0  0  0  0  0  0
   -0.7606   -0.1558    1.5878 H   0  0  0  0  0  0  0  0  0  0  0  0
   -2.2593    0.0091    2.3465 H   0  0  0  0  0  0  0  0  0  0  0  0
   -2.5261    0.7205    0.2751 C   0  0  0  0  0  0  0  0  0  0  0  0
   -1.9709    1.5541    0.1962 H   0  0  0  0  0  0  0  0  0  0  0  0
   -3.5759    0.9868    0.4850 H   0  0  0  0  0  0  0  0  0  0  0  0
   -2.7948   -0.1218   -0.8619 O   0  0  0  0  0  0  0  0  0  0  0  0
  1  2  1  0  0  0  0
  1  8  1  0  0  0  0
  1  3  1  0  0  0  0
  4  1  1  0  0  0  0
  5  4  1  0  0  0  0
  6  4  1  0  0  0  0
  8  9  1  0  0  0  0
  8 10  1  0  0  0  0
 11 13  1  0  0  0  0
 11  8  1  0  0  0  0
 12 11  1  0  0  0  0
 14  4  1  0  0  0  0
 14 11  1  0  0  0  0
M  END
$$$$
Title Card Required
 OpenBabel06272217483D

 14 13  0  0  0  0  0  0  0  0999 V2000
   -2.3117   -1.7116    0.8020 C   0  0  0  0  0  0  0  0  0  0  0  0
   -1.4326   -2.3853    1.0363 H   0  0  0  0  0  0  0  0  0  0  0  0
   -3.2329   -1.7892    1.3920 H   0  0  0  0  0  0  0  0  0  0  0  0
   -2.3435   -1.5111   -0.5806 C   0  0  0  0  0  0  0  0  0  0  0  0
   -3.4380   -1.8620   -0.6889 H   0  0  0  0  0  0  0  0  0  0  0  0
   -1.5352   -1.9988   -1.1502 H   0  0  0  0  0  0  0  0  0  0  0  0
    2.1847    0.5207   -0.1764 Br  0  0  0  0  0 15  0  0  0  0  0  0
   -1.9227   -0.2992    1.3656 C   0  0  0  0  0  0  0  0  0  0  0  0
   -0.7974   -0.1557    1.5017 H   0  0  0  0  0  0  0  0  0  0  0  0
   -2.2638   -0.0282    2.4018 H   0  0  0  0  0  0  0  0  0  0  0  0
   -2.5239    0.7214    0.2896 C   0  0  0  0  0  0  0  0  0  0  0  0
   -1.9296    1.5613    0.2446 H   0  0  0  0  0  0  0  0  0  0  0  0
   -3.5831    1.0078    0.4884 H   0  0  0  0  0  0  0  0  0  0  0  0
   -2.8033   -0.1121   -0.8668 O   0  0  0  0  0  0  0  0  0  0  0  0
  1  2  1  0  0  0  0
  1  8  1  0  0  0  0
  1  3  1  0  0  0  0
  4  1  1  0  0  0  0
  5  4  1  0  0  0  0
  6  4  1  0  0  0  0
  8  9  1  0  0  0  0
  8 10  1  0  0  0  0
 11 13  1  0  0  0  0
 11  8  1  0  0  0  0
 12 11  1  0  0  0  0
 14  4  1  0  0  0  0
 14 11  1  0  0  0  0
M  END
$$$$
Title Card Required
 OpenBabel06272217483D

 14 13  0  0  0  0  0  0  0  0999 V2000
   -2.3081   -1.7079    0.8052 C   0  0  0  0  0  0  0  0  0  0  0  0
   -1.4782   -2.3799    0.9797 H   0  0  0  0  0  0  0  0  0  0  0  0
   -3.2285   -1.7664    1.3768 H   0  0  0  0  0  0  0  0  0  0  0  0
   -2.3504   -1.5384   -0.5892 C   0  0  0  0  0  0  0  0  0  0  0  0
   -3.3569   -1.8614   -0.6126 H   0  0  0  0  0  0  0  0  0  0  0  0
   -1.5769   -2.0654   -1.1065 H   0  0  0  0  0  0  0  0  0  0  0  0
    2.1859    0.5217   -0.1754 Br  0  0  0  0  0 15  0  0  0  0  0  0
   -1.9192   -0.2885    1.3516 C   0  0  0  0  0  0  0  0  0  0  0  0
   -0.8462   -0.1568    1.4050 H   0  0  0  0  0  0  0  0  0  0  0  0
   -2.2729   -0.0725    2.4476 H   0  0  0  0  0  0  0  0  0  0  0  0
   -2.5247    0.7172    0.3049 C   0  0  0  0  0  0  0  0  0  0  0  0
   -1.8637    1.5961    0.2766 H   0  0  0  0  0  0  0  0  0  0  0  0
   -3.5823    1.0344    0.5039 H   0  0  0  0  0  0  0  0  0  0  0  0
   -2.8090   -0.1028   -0.8713 O   0  0  0  0  0  0  0  0  0  0  0  0
  1  2  1  0  0  0  0
  1  8  1  0  0  0  0
  1  3  1  0  0  0  0
  4  1  1  0  0  0  0
  5  4  1  0  0  0  0
  6  4  1  0  0  0  0
  8  9  1  0  0  0  0
  8 10  1  0  0  0  0
 11 13  1  0  0  0  0
 11  8  1  0  0  0  0
 12 11  1  0  0  0  0
 14  4  1  0  0  0  0
 14 11  1  0  0  0  0
M  END
$$$$
Title Card Required
 OpenBabel06272217483D

 14 13  0  0  0  0  0  0  0  0999 V2000
   -2.3012   -1.7003    0.8149 C   0  0  0  0  0  0  0  0  0  0  0  0
   -1.5292   -2.3863    0.9363 H   0  0  0  0  0  0  0  0  0  0  0  0
   -3.2329   -1.7647    1.3552 H   0  0  0  0  0  0  0  0  0  0  0  0
   -2.3629   -1.5640   -0.6011 C   0  0  0  0  0  0  0  0  0  0  0  0
   -3.2882   -1.8928   -0.5679 H   0  0  0  0  0  0  0  0  0  0  0  0
   -1.6121   -2.1304   -1.0764 H   0  0  0  0  0  0  0  0  0  0  0  0
    2.1871    0.5228   -0.1744 Br  0  0  0  0  0 15  0  0  0  0  0  0
   -1.9162   -0.2757    1.3381 C   0  0  0  0  0  0  0  0  0  0  0  0
   -0.8873   -0.1554    1.2947 H   0  0  0  0  0  0  0  0  0  0  0  0
   -2.2781   -0.1276    2.4697 H   0  0  0  0  0  0  0  0  0  0  0  0
   -2.5275    0.7101    0.3219 C   0  0  0  0  0  0  0  0  0  0  0  0
   -1.7902    1.6319    0.2961 H   0  0  0  0  0  0  0  0  0  0  0  0
   -3.5696    1.0676    0.5322 H   0  0  0  0  0  0  0  0  0  0  0  0
   -2.8123   -0.0935   -0.8756 O   0  0  0  0  0  0  0  0  0  0  0  0
  1  2  1  0  0  0  0
  1  8  1  0  0  0  0
  1  3  1  0  0  0  0
  4  5  1  0  0  0  0
  4  1  1  0  0  0  0
  6  4  1  0  0  0  0
  8 10  1  0  0  0  0
  9  8  1  0  0  0  0
 11 13  1  0  0  0  0
 11  8  1  0  0  0  0
 12 11  1  0  0  0  0
 14  4  1  0  0  0  0
 14 11  1  0  0  0  0
M  END
$$$$
Title Card Required
 OpenBabel06272217483D

 14 13  0  0  0  0  0  0  0  0999 V2000
   -2.2920   -1.6866    0.8307 C   0  0  0  0  0  0  0  0  0  0  0  0
   -1.5641   -2.4234    0.9192 H   0  0  0  0  0  0  0  0  0  0  0  0
   -3.2501   -1.7885    1.3292 H   0  0  0  0  0  0  0  0  0  0  0  0
   -2.3779   -1.5845   -0.6152 C   0  0  0  0  0  0  0  0  0  0  0  0
   -3.2935   -1.9785   -0.5666 H   0  0  0  0  0  0  0  0  0  0  0  0
   -1.6300   -2.1948   -1.0717 H   0  0  0  0  0  0  0  0  0  0  0  0
    2.1884    0.5240   -0.1732 Br  0  0  0  0  0 15  0  0  0  0  0  0
   -1.9160   -0.2622    1.3264 C   0  0  0  0  0  0  0  0  0  0  0  0
   -0.8886   -0.1470    1.1769 H   0  0  0  0  0  0  0  0  0  0  0  0
   -2.2705   -0.1891    2.4531 H   0  0  0  0  0  0  0  0  0  0  0  0
   -2.5310    0.7023    0.3398 C   0  0  0  0  0  0  0  0  0  0  0  0
   -1.7332    1.6407    0.3011 H   0  0  0  0  0  0  0  0  0  0  0  0
   -3.5427    1.1062    0.5734 H   0  0  0  0  0  0  0  0  0  0  0  0
   -2.8126   -0.0848   -0.8794 O   0  0  0  0  0  0  0  0  0  0  0  0
  1  2  1  0  0  0  0
  1  8  1  0  0  0  0
  1  3  1  0  0  0  0
  4  5  1  0  0  0  0
  4  1  1  0  0  0  0
  6  4  1  0  0  0  0
  8 10  1  0  0  0  0
  9  8  1  0  0  0  0
 11 13  1  0  0  0  0
 11  8  1  0  0  0  0
 12 11  1  0  0  0  0
 14  4  1  0  0  0  0
 14 11  1  0  0  0  0
M  END
$$$$
Title Card Required
 OpenBabel06272217483D

 14 13  0  0  0  0  0  0  0  0999 V2000
   -2.2833   -1.6698    0.8477 C   0  0  0  0  0  0  0  0  0  0  0  0
   -1.5753   -2.4823    0.9318 H   0  0  0  0  0  0  0  0  0  0  0  0
   -3.2726   -1.8291    1.3049 H   0  0  0  0  0  0  0  0  0  0  0  0
   -2.3931   -1.5971   -0.6278 C   0  0  0  0  0  0  0  0  0  0  0  0
   -3.3589   -2.0929   -0.6035 H   0  0  0  0  0  0  0  0  0  0  0  0
   -1.6310   -2.2421   -1.0904 H   0  0  0  0  0  0  0  0  0  0  0  0
    2.1895    0.5250   -0.1721 Br  0  0  0  0  0 15  0  0  0  0  0  0
   -1.9177   -0.2515    1.3186 C   0  0  0  0  0  0  0  0  0  0  0  0
   -0.8539   -0.1342    1.0779 H   0  0  0  0  0  0  0  0  0  0  0  0
   -2.2487   -0.2391    2.4060 H   0  0  0  0  0  0  0  0  0  0  0  0
   -2.5338    0.6966    0.3546 C   0  0  0  0  0  0  0  0  0  0  0  0
   -1.7121    1.6135    0.2926 H   0  0  0  0  0  0  0  0  0  0  0  0
   -3.5105    1.1415    0.6169 H   0  0  0  0  0  0  0  0  0  0  0  0
   -2.8104   -0.0785   -0.8819 O   0  0  0  0  0  0  0  0  0  0  0  0
  1  2  1  0  0  0  0
  1  3  1  0  0  0  0
  1  8  1  0  0  0  0
  4  5  1  0  0  0  0
  4  1  1  0  0  0  0
  6  4  1  0  0  0  0
  8 10  1  0  0  0  0
  9  8  1  0  0  0  0
 11 13  1  0  0  0  0
 11  8  1  0  0  0  0
 12 11  1  0  0  0  0
 14  4  1  0  0  0  0
 14 11  1  0  0  0  0
M  END
$$$$
Title Card Required
 OpenBabel06272217483D

 14 13  0  0  0  0  0  0  0  0999 V2000
   -2.2751   -1.6524    0.8647 C   0  0  0  0  0  0  0  0  0  0  0  0
   -1.5794   -2.5426    0.9651 H   0  0  0  0  0  0  0  0  0  0  0  0
   -3.2921   -1.8779    1.2815 H   0  0  0  0  0  0  0  0  0  0  0  0
   -2.4111   -1.6059   -0.6390 C   0  0  0  0  0  0  0  0  0  0  0  0
   -3.4289   -2.2077   -0.6661 H   0  0  0  0  0  0  0  0  0  0  0  0
   -1.6274   -2.2671   -1.1217 H   0  0  0  0  0  0  0  0  0  0  0  0
    2.1905    0.5260   -0.1711 Br  0  0  0  0  0 15  0  0  0  0  0  0
   -1.9184   -0.2436    1.3125 C   0  0  0  0  0  0  0  0  0  0  0  0
   -0.8128   -0.1215    0.9989 H   0  0  0  0  0  0  0  0  0  0  0  0
   -2.2164   -0.2752    2.3481 H   0  0  0  0  0  0  0  0  0  0  0  0
   -2.5359    0.6927    0.3666 C   0  0  0  0  0  0  0  0  0  0  0  0
   -1.7207    1.5589    0.2742 H   0  0  0  0  0  0  0  0  0  0  0  0
   -3.4784    1.1738    0.6611 H   0  0  0  0  0  0  0  0  0  0  0  0
   -2.8064   -0.0742   -0.8835 O   0  0  0  0  0  0  0  0  0  0  0  0
  1  2  1  0  0  0  0
  1  3  1  0  0  0  0
  1  8  1  0  0  0  0
  4  1  1  0  0  0  0
  5  4  1  0  0  0  0
  6  4  1  0  0  0  0
  8 10  1  0  0  0  0
  9  8  1  0  0  0  0
 11 13  1  0  0  0  0
 11  8  1  0  0  0  0
 12 11  1  0  0  0  0
 14  4  1  0  0  0  0
 14 11  1  0  0  0  0
M  END
$$$$
Title Card Required
 OpenBabel06272217483D

 14 13  0  0  0  0  0  0  0  0999 V2000
   -2.2671   -1.6355    0.8818 C   0  0  0  0  0  0  0  0  0  0  0  0
   -1.5889   -2.5892    1.0163 H   0  0  0  0  0  0  0  0  0  0  0  0
   -3.3022   -1.9315    1.2575 H   0  0  0  0  0  0  0  0  0  0  0  0
   -2.4346   -1.6140   -0.6497 C   0  0  0  0  0  0  0  0  0  0  0  0
   -3.4771   -2.3101   -0.7510 H   0  0  0  0  0  0  0  0  0  0  0  0
   -1.6276   -2.2644   -1.1612 H   0  0  0  0  0  0  0  0  0  0  0  0
    2.1915    0.5270   -0.1700 Br  0  0  0  0  0 15  0  0  0  0  0  0
   -1.9153   -0.2381    1.3055 C   0  0  0  0  0  0  0  0  0  0  0  0
   -0.7827   -0.1117    0.9402 H   0  0  0  0  0  0  0  0  0  0  0  0
   -2.1762   -0.2968    2.3005 H   0  0  0  0  0  0  0  0  0  0  0  0
   -2.5378    0.6901    0.3764 C   0  0  0  0  0  0  0  0  0  0  0  0
   -1.7543    1.4815    0.2452 H   0  0  0  0  0  0  0  0  0  0  0  0
   -3.4484    1.2047    0.7079 H   0  0  0  0  0  0  0  0  0  0  0  0
   -2.8006   -0.0717   -0.8842 O   0  0  0  0  0  0  0  0  0  0  0  0
  1  2  1  0  0  0  0
  1  3  1  0  0  0  0
  1  8  1  0  0  0  0
  4  1  1  0  0  0  0
  5  4  1  0  0  0  0
  6  4  1  0  0  0  0
  8 10  1  0  0  0  0
  9  8  1  0  0  0  0
 11 13  1  0  0  0  0
 11  8  1  0  0  0  0
 12 11  1  0  0  0  0
 14  4  1  0  0  0  0
 14 11  1  0  0  0  0
M  END
$$$$
Title Card Required
 OpenBabel06272217483D

 14 13  0  0  0  0  0  0  0  0999 V2000
   -2.2600   -1.6217    0.8981 C   0  0  0  0  0  0  0  0  0  0  0  0
   -1.6103   -2.6054    1.0829 H   0  0  0  0  0  0  0  0  0  0  0  0
   -3.2956   -1.9830    1.2341 H   0  0  0  0  0  0  0  0  0  0  0  0
   -2.4646   -1.6224   -0.6598 C   0  0  0  0  0  0  0  0  0  0  0  0
   -3.4881   -2.3854   -0.8526 H   0  0  0  0  0  0  0  0  0  0  0  0
   -1.6384   -2.2247   -1.2050 H   0  0  0  0  0  0  0  0  0  0  0  0
    2.1925    0.5280   -0.1688 Br  0  0  0  0  0 15  0  0  0  0  0  0
   -1.9059   -0.2353    1.2952 C   0  0  0  0  0  0  0  0  0  0  0  0
   -0.7755   -0.1078    0.9089 H   0  0  0  0  0  0  0  0  0  0  0  0
   -2.1322   -0.2998    2.2936 H   0  0  0  0  0  0  0  0  0  0  0  0
   -2.5405    0.6881    0.3837 C   0  0  0  0  0  0  0  0  0  0  0  0
   -1.8007    1.3964    0.2021 H   0  0  0  0  0  0  0  0  0  0  0  0
   -3.4237    1.2328    0.7564 H   0  0  0  0  0  0  0  0  0  0  0  0
   -2.7930   -0.0715   -0.8838 O   0  0  0  0  0  0  0  0  0  0  0  0
  1  2  1  0  0  0  0
  1  3  1  0  0  0  0
  1  8  1  0  0  0  0
  4  1  1  0  0  0  0
  5  4  1  0  0  0  0
  6  4  1  0  0  0  0
  8 10  1  0  0  0  0
  9  8  1  0  0  0  0
 11 13  1  0  0  0  0
 11  8  1  0  0  0  0
 12 11  1  0  0  0  0
 14  4  1  0  0  0  0
 14 11  1  0  0  0  0
M  END
$$$$
Title Card Required
 OpenBabel06272217483D

 14 13  0  0  0  0  0  0  0  0999 V2000
   -2.2552   -1.6141    0.9114 C   0  0  0  0  0  0  0  0  0  0  0  0
   -1.6416   -2.5814    1.1551 H   0  0  0  0  0  0  0  0  0  0  0  0
   -3.2713   -2.0202    1.2167 H   0  0  0  0  0  0  0  0  0  0  0  0
   -2.4986   -1.6307   -0.6686 C   0  0  0  0  0  0  0  0  0  0  0  0
   -3.4572   -2.4176   -0.9538 H   0  0  0  0  0  0  0  0  0  0  0  0
   -1.6610   -2.1484   -1.2461 H   0  0  0  0  0  0  0  0  0  0  0  0
    2.1935    0.5291   -0.1676 Br  0  0  0  0  0 15  0  0  0  0  0  0
   -1.8900   -0.2356    1.2820 C   0  0  0  0  0  0  0  0  0  0  0  0
   -0.7939   -0.1118    0.9107 H   0  0  0  0  0  0  0  0  0  0  0  0
   -2.0875   -0.2810    2.3353 H   0  0  0  0  0  0  0  0  0  0  0  0
   -2.5465    0.6846    0.3878 C   0  0  0  0  0  0  0  0  0  0  0  0
   -1.8280    1.3409    0.1421 H   0  0  0  0  0  0  0  0  0  0  0  0
   -3.4070    1.2529    0.8001 H   0  0  0  0  0  0  0  0  0  0  0  0
   -2.7845   -0.0740   -0.8825 O   0  0  0  0  0  0  0  0  0  0  0  0
  1  2  1  0  0  0  0
  1  3  1  0  0  0  0
  1  8  1  0  0  0  0
  4  1  1  0  0  0  0
  5  4  1  0  0  0  0
  6  4  1  0  0  0  0
  8 10  1  0  0  0  0
  9  8  1  0  0  0  0
 11 13  1  0  0  0  0
 11  8  1  0  0  0  0
 12 11  1  0  0  0  0
 14  4  1  0  0  0  0
 14 11  1  0  0  0  0
M  END
$$$$
Title Card Required
 OpenBabel06272217483D

 14 13  0  0  0  0  0  0  0  0999 V2000
   -2.2532   -1.6131    0.9200 C   0  0  0  0  0  0  0  0  0  0  0  0
   -1.6721   -2.5284    1.2209 H   0  0  0  0  0  0  0  0  0  0  0  0
   -3.2399   -2.0377    1.2099 H   0  0  0  0  0  0  0  0  0  0  0  0
   -2.5317   -1.6375   -0.6757 C   0  0  0  0  0  0  0  0  0  0  0  0
   -3.3991   -2.4080   -1.0372 H   0  0  0  0  0  0  0  0  0  0  0  0
   -1.6882   -2.0520   -1.2796 H   0  0  0  0  0  0  0  0  0  0  0  0
    2.1944    0.5300   -0.1665 Br  0  0  0  0  0 15  0  0  0  0  0  0
   -1.8710   -0.2385    1.2702 C   0  0  0  0  0  0  0  0  0  0  0  0
   -0.8239   -0.1217    0.9368 H   0  0  0  0  0  0  0  0  0  0  0  0
   -2.0416   -0.2450    2.3903 H   0  0  0  0  0  0  0  0  0  0  0  0
   -2.5560    0.6791    0.3892 C   0  0  0  0  0  0  0  0  0  0  0  0
   -1.8198    1.3334    0.0701 H   0  0  0  0  0  0  0  0  0  0  0  0
   -3.3975    1.2619    0.8329 H   0  0  0  0  0  0  0  0  0  0  0  0
   -2.7765   -0.0787   -0.8803 O   0  0  0  0  0  0  0  0  0  0  0  0
  1  3  1  0  0  0  0
  1  2  1  0  0  0  0
  1  8  1  0  0  0  0
  4  1  1  0  0  0  0
  5  4  1  0  0  0  0
  6  4  1  0  0  0  0
  8 10  1  0  0  0  0
  9  8  1  0  0  0  0
 11 13  1  0  0  0  0
 11  8  1  0  0  0  0
 12 11  1  0  0  0  0
 14  4  1  0  0  0  0
 14 11  1  0  0  0  0
M  END
$$$$
Title Card Required
 OpenBabel06272217483D

 14 13  0  0  0  0  0  0  0  0999 V2000
   -2.2538   -1.6168    0.9247 C   0  0  0  0  0  0  0  0  0  0  0  0
   -1.6927   -2.4635    1.2806 H   0  0  0  0  0  0  0  0  0  0  0  0
   -3.2125   -2.0393    1.2149 H   0  0  0  0  0  0  0  0  0  0  0  0
   -2.5634   -1.6423   -0.6815 C   0  0  0  0  0  0  0  0  0  0  0  0
   -3.3304   -2.3694   -1.1025 H   0  0  0  0  0  0  0  0  0  0  0  0
   -1.7132   -1.9457   -1.3081 H   0  0  0  0  0  0  0  0  0  0  0  0
    2.1951    0.5309   -0.1655 Br  0  0  0  0  0 15  0  0  0  0  0  0
   -1.8512   -0.2432    1.2619 C   0  0  0  0  0  0  0  0  0  0  0  0
   -0.8470   -0.1344    0.9744 H   0  0  0  0  0  0  0  0  0  0  0  0
   -1.9923   -0.1973    2.4313 H   0  0  0  0  0  0  0  0  0  0  0  0
   -2.5670    0.6731    0.3881 C   0  0  0  0  0  0  0  0  0  0  0  0
   -1.7949    1.3547   -0.0050 H   0  0  0  0  0  0  0  0  0  0  0  0
   -3.3929    1.2610    0.8555 H   0  0  0  0  0  0  0  0  0  0  0  0
   -2.7693   -0.0854   -0.8775 O   0  0  0  0  0  0  0  0  0  0  0  0
  1  3  1  0  0  0  0
  1  8  1  0  0  0  0
  1  2  1  0  0  0  0
  4  1  1  0  0  0  0
  5  4  1  0  0  0  0
  6  4  1  0  0  0  0
  8 10  1  0  0  0  0
  9  8  1  0  0  0  0
 11 13  1  0  0  0  0
 11  8  1  0  0  0  0
 12 11  1  0  0  0  0
 14  4  1  0  0  0  0
 14 11  1  0  0  0  0
M  END
$$$$
Title Card Required
 OpenBabel06272217483D

 14 13  0  0  0  0  0  0  0  0999 V2000
   -2.2569   -1.6234    0.9258 C   0  0  0  0  0  0  0  0  0  0  0  0
   -1.6944   -2.3997    1.3403 H   0  0  0  0  0  0  0  0  0  0  0  0
   -3.1976   -2.0283    1.2343 H   0  0  0  0  0  0  0  0  0  0  0  0
   -2.5942   -1.6442   -0.6860 C   0  0  0  0  0  0  0  0  0  0  0  0
   -3.2651   -2.3135   -1.1571 H   0  0  0  0  0  0  0  0  0  0  0  0
   -1.7322   -1.8289   -1.3342 H   0  0  0  0  0  0  0  0  0  0  0  0
    2.1958    0.5319   -0.1644 Br  0  0  0  0  0 15  0  0  0  0  0  0
   -1.8315   -0.2494    1.2576 C   0  0  0  0  0  0  0  0  0  0  0  0
   -0.8436   -0.1479    1.0153 H   0  0  0  0  0  0  0  0  0  0  0  0
   -1.9370   -0.1397    2.4474 H   0  0  0  0  0  0  0  0  0  0  0  0
   -2.5778    0.6675    0.3839 C   0  0  0  0  0  0  0  0  0  0  0  0
   -1.7745    1.3855   -0.0754 H   0  0  0  0  0  0  0  0  0  0  0  0
   -3.3925    1.2507    0.8694 H   0  0  0  0  0  0  0  0  0  0  0  0
   -2.7628   -0.0943   -0.8738 O   0  0  0  0  0  0  0  0  0  0  0  0
  1  3  1  0  0  0  0
  1  8  1  0  0  0  0
  1  2  1  0  0  0  0
  4  1  1  0  0  0  0
  5  4  1  0  0  0  0
  6  4  1  0  0  0  0
  8 10  1  0  0  0  0
  9  8  1  0  0  0  0
 11 13  1  0  0  0  0
 11  8  1  0  0  0  0
 12 11  1  0  0  0  0
 14  4  1  0  0  0  0
 14 11  1  0  0  0  0
M  END
$$$$
Title Card Required
 OpenBabel06272217483D

 14 13  0  0  0  0  0  0  0  0999 V2000
   -2.2630   -1.6322    0.9227 C   0  0  0  0  0  0  0  0  0  0  0  0
   -1.6666   -2.3504    1.4039 H   0  0  0  0  0  0  0  0  0  0  0  0
   -3.2038   -2.0055    1.2717 H   0  0  0  0  0  0  0  0  0  0  0  0
   -2.6223   -1.6409   -0.6885 C   0  0  0  0  0  0  0  0  0  0  0  0
   -3.2282   -2.2597   -1.2119 H   0  0  0  0  0  0  0  0  0  0  0  0
   -1.7425   -1.7039   -1.3568 H   0  0  0  0  0  0  0  0  0  0  0  0
    2.1966    0.5328   -0.1632 Br  0  0  0  0  0 15  0  0  0  0  0  0
   -1.8129   -0.2567    1.2580 C   0  0  0  0  0  0  0  0  0  0  0  0
   -0.7962   -0.1606    1.0527 H   0  0  0  0  0  0  0  0  0  0  0  0
   -1.8770   -0.0749    2.4309 H   0  0  0  0  0  0  0  0  0  0  0  0
   -2.5867    0.6630    0.3754 C   0  0  0  0  0  0  0  0  0  0  0  0
   -1.7750    1.4130   -0.1307 H   0  0  0  0  0  0  0  0  0  0  0  0
   -3.3979    1.2302    0.8742 H   0  0  0  0  0  0  0  0  0  0  0  0
   -2.7575   -0.1057   -0.8691 O   0  0  0  0  0  0  0  0  0  0  0  0
  1  8  1  0  0  0  0
  1  3  1  0  0  0  0
  1  2  1  0  0  0  0
  4  1  1  0  0  0  0
  5  4  1  0  0  0  0
  6  4  1  0  0  0  0
  8 10  1  0  0  0  0
  9  8  1  0  0  0  0
 11 13  1  0  0  0  0
 11  8  1  0  0  0  0
 12 11  1  0  0  0  0
 14  4  1  0  0  0  0
 14 11  1  0  0  0  0
M  END
$$$$
Title Card Required
 OpenBabel06272217483D

 14 13  0  0  0  0  0  0  0  0999 V2000
   -2.2716   -1.6423    0.9162 C   0  0  0  0  0  0  0  0  0  0  0  0
   -1.6129   -2.3219    1.4638 H   0  0  0  0  0  0  0  0  0  0  0  0
   -3.2306   -1.9730    1.3246 H   0  0  0  0  0  0  0  0  0  0  0  0
   -2.6433   -1.6306   -0.6879 C   0  0  0  0  0  0  0  0  0  0  0  0
   -3.2424   -2.2303   -1.2760 H   0  0  0  0  0  0  0  0  0  0  0  0
   -1.7454   -1.5865   -1.3693 H   0  0  0  0  0  0  0  0  0  0  0  0
    2.1973    0.5338   -0.1620 Br  0  0  0  0  0 15  0  0  0  0  0  0
   -1.7961   -0.2638    1.2624 C   0  0  0  0  0  0  0  0  0  0  0  0
   -0.7165   -0.1723    1.0815 H   0  0  0  0  0  0  0  0  0  0  0  0
   -1.8204   -0.0118    2.3838 H   0  0  0  0  0  0  0  0  0  0  0  0
   -2.5917    0.6601    0.3629 C   0  0  0  0  0  0  0  0  0  0  0  0
   -1.8041    1.4285   -0.1598 H   0  0  0  0  0  0  0  0  0  0  0  0
   -3.4108    1.2014    0.8693 H   0  0  0  0  0  0  0  0  0  0  0  0
   -2.7542   -0.1185   -0.8633 O   0  0  0  0  0  0  0  0  0  0  0  0
  1  8  1  0  0  0  0
  1  3  1  0  0  0  0
  1  2  1  0  0  0  0
  4  1  1  0  0  0  0
  5  4  1  0  0  0  0
  6  4  1  0  0  0  0
  8 10  1  0  0  0  0
  9  8  1  0  0  0  0
 11 13  1  0  0  0  0
 11  8  1  0  0  0  0
 12 11  1  0  0  0  0
 14  4  1  0  0  0  0
 14 11  1  0  0  0  0
M  END
$$$$
Title Card Required
 OpenBabel06272217483D

 14 13  0  0  0  0  0  0  0  0999 V2000
   -2.2819   -1.6540    0.9084 C   0  0  0  0  0  0  0  0  0  0  0  0
   -1.5515   -2.3052    1.5071 H   0  0  0  0  0  0  0  0  0  0  0  0
   -3.2650   -1.9319    1.3850 H   0  0  0  0  0  0  0  0  0  0  0  0
   -2.6567   -1.6144   -0.6853 C   0  0  0  0  0  0  0  0  0  0  0  0
   -3.2969   -2.2201   -1.3420 H   0  0  0  0  0  0  0  0  0  0  0  0
   -1.7460   -1.4899   -1.3671 H   0  0  0  0  0  0  0  0  0  0  0  0
    2.1979    0.5347   -0.1609 Br  0  0  0  0  0 15  0  0  0  0  0  0
   -1.7794   -0.2698    1.2685 C   0  0  0  0  0  0  0  0  0  0  0  0
   -0.6350   -0.1848    1.1014 H   0  0  0  0  0  0  0  0  0  0  0  0
   -1.7731    0.0445    2.3208 H   0  0  0  0  0  0  0  0  0  0  0  0
   -2.5921    0.6584    0.3469 C   0  0  0  0  0  0  0  0  0  0  0  0
   -1.8595    1.4311   -0.1613 H   0  0  0  0  0  0  0  0  0  0  0  0
   -3.4314    1.1661    0.8564 H   0  0  0  0  0  0  0  0  0  0  0  0
   -2.7533   -0.1317   -0.8566 O   0  0  0  0  0  0  0  0  0  0  0  0
  1  8  1  0  0  0  0
  1  3  1  0  0  0  0
  1  2  1  0  0  0  0
  4  1  1  0  0  0  0
  5  4  1  0  0  0  0
  6  4  1  0  0  0  0
  8 10  1  0  0  0  0
  9  8  1  0  0  0  0
 11 13  1  0  0  0  0
 11  8  1  0  0  0  0
 12 11  1  0  0  0  0
 14  4  1  0  0  0  0
 14 11  1  0  0  0  0
M  END
$$$$
Title Card Required
 OpenBabel06272217483D

 14 13  0  0  0  0  0  0  0  0999 V2000
   -2.2940   -1.6683    0.9011 C   0  0  0  0  0  0  0  0  0  0  0  0
   -1.4972   -2.2912    1.5241 H   0  0  0  0  0  0  0  0  0  0  0  0
   -3.2942   -1.8809    1.4473 H   0  0  0  0  0  0  0  0  0  0  0  0
   -2.6643   -1.5933   -0.6824 C   0  0  0  0  0  0  0  0  0  0  0  0
   -3.3702   -2.2095   -1.3935 H   0  0  0  0  0  0  0  0  0  0  0  0
   -1.7477   -1.4208   -1.3478 H   0  0  0  0  0  0  0  0  0  0  0  0
    2.1986    0.5357   -0.1596 Br  0  0  0  0  0 15  0  0  0  0  0  0
   -1.7605   -0.2745    1.2739 C   0  0  0  0  0  0  0  0  0  0  0  0
   -0.5717   -0.2004    1.1127 H   0  0  0  0  0  0  0  0  0  0  0  0
   -1.7363    0.0973    2.2601 H   0  0  0  0  0  0  0  0  0  0  0  0
   -2.5882    0.6570    0.3276 C   0  0  0  0  0  0  0  0  0  0  0  0
   -1.9368    1.4258   -0.1389 H   0  0  0  0  0  0  0  0  0  0  0  0
   -3.4601    1.1227    0.8357 H   0  0  0  0  0  0  0  0  0  0  0  0
   -2.7553   -0.1454   -0.8489 O   0  0  0  0  0  0  0  0  0  0  0  0
  1  8  1  0  0  0  0
  1  3  1  0  0  0  0
  1  2  1  0  0  0  0
  4  1  1  0  0  0  0
  5  4  1  0  0  0  0
  6  4  1  0  0  0  0
  8 10  1  0  0  0  0
  9  8  1  0  0  0  0
 11 13  1  0  0  0  0
 11  8  1  0  0  0  0
 12 11  1  0  0  0  0
 14  4  1  0  0  0  0
 14 11  1  0  0  0  0
M  END
$$$$
Title Card Required
 OpenBabel06272217483D

 14 13  0  0  0  0  0  0  0  0999 V2000
   -2.3082   -1.6853    0.8960 C   0  0  0  0  0  0  0  0  0  0  0  0
   -1.4642   -2.2766    1.5033 H   0  0  0  0  0  0  0  0  0  0  0  0
   -3.3055   -1.8204    1.5039 H   0  0  0  0  0  0  0  0  0  0  0  0
   -2.6671   -1.5678   -0.6808 C   0  0  0  0  0  0  0  0  0  0  0  0
   -3.4430   -2.1817   -1.4102 H   0  0  0  0  0  0  0  0  0  0  0  0
   -1.7502   -1.3925   -1.3107 H   0  0  0  0  0  0  0  0  0  0  0  0
    2.1992    0.5367   -0.1583 Br  0  0  0  0  0 15  0  0  0  0  0  0
   -1.7374   -0.2783    1.2757 C   0  0  0  0  0  0  0  0  0  0  0  0
   -0.5413   -0.2203    1.1130 H   0  0  0  0  0  0  0  0  0  0  0  0
   -1.7127    0.1518    2.2266 H   0  0  0  0  0  0  0  0  0  0  0  0
   -2.5808    0.6543    0.3054 C   0  0  0  0  0  0  0  0  0  0  0  0
   -2.0237    1.4278   -0.1005 H   0  0  0  0  0  0  0  0  0  0  0  0
   -3.4958    1.0676    0.8063 H   0  0  0  0  0  0  0  0  0  0  0  0
   -2.7609   -0.1590   -0.8397 O   0  0  0  0  0  0  0  0  0  0  0  0
  1  8  1  0  0  0  0
  1  2  1  0  0  0  0
  1  3  1  0  0  0  0
  4  1  1  0  0  0  0
  5  4  1  0  0  0  0
  6  4  1  0  0  0  0
  8 10  1  0  0  0  0
  9  8  1  0  0  0  0
 11 13  1  0  0  0  0
 11  8  1  0  0  0  0
 12 11  1  0  0  0  0
 14  4  1  0  0  0  0
 14 11  1  0  0  0  0
M  END
$$$$
Title Card Required
 OpenBabel06272217483D

 14 13  0  0  0  0  0  0  0  0999 V2000
   -2.3230   -1.7027    0.8951 C   0  0  0  0  0  0  0  0  0  0  0  0
   -1.4641   -2.2656    1.4418 H   0  0  0  0  0  0  0  0  0  0  0  0
   -3.2907   -1.7603    1.5424 H   0  0  0  0  0  0  0  0  0  0  0  0
   -2.6659   -1.5413   -0.6807 C   0  0  0  0  0  0  0  0  0  0  0  0
   -3.4942   -2.1311   -1.3791 H   0  0  0  0  0  0  0  0  0  0  0  0
   -1.7471   -1.4177   -1.2644 H   0  0  0  0  0  0  0  0  0  0  0  0
    2.1998    0.5377   -0.1569 Br  0  0  0  0  0 15  0  0  0  0  0  0
   -1.7120   -0.2809    1.2719 C   0  0  0  0  0  0  0  0  0  0  0  0
   -0.5516   -0.2422    1.1004 H   0  0  0  0  0  0  0  0  0  0  0  0
   -1.7062    0.2046    2.2342 H   0  0  0  0  0  0  0  0  0  0  0  0
   -2.5726    0.6475    0.2842 C   0  0  0  0  0  0  0  0  0  0  0  0
   -2.0885    1.4663   -0.0678 H   0  0  0  0  0  0  0  0  0  0  0  0
   -3.5308    1.0027    0.7709 H   0  0  0  0  0  0  0  0  0  0  0  0
   -2.7702   -0.1702   -0.8301 O   0  0  0  0  0  0  0  0  0  0  0  0
  1  8  1  0  0  0  0
  1  2  1  0  0  0  0
  1  3  1  0  0  0  0
  4  1  1  0  0  0  0
  5  4  1  0  0  0  0
  6  4  1  0  0  0  0
  8 10  1  0  0  0  0
  9  8  1  0  0  0  0
 11 13  1  0  0  0  0
 11  8  1  0  0  0  0
 12 11  1  0  0  0  0
 14  4  1  0  0  0  0
 14 11  1  0  0  0  0
M  END
$$$$
Title Card Required
 OpenBabel06272217483D

 14 13  0  0  0  0  0  0  0  0999 V2000
   -2.3365   -1.7168    0.8973 C   0  0  0  0  0  0  0  0  0  0  0  0
   -1.4888   -2.2650    1.3596 H   0  0  0  0  0  0  0  0  0  0  0  0
   -3.2586   -1.7131    1.5600 H   0  0  0  0  0  0  0  0  0  0  0  0
   -2.6627   -1.5183   -0.6810 C   0  0  0  0  0  0  0  0  0  0  0  0
   -3.5163   -2.0691   -1.3136 H   0  0  0  0  0  0  0  0  0  0  0  0
   -1.7322   -1.4847   -1.2239 H   0  0  0  0  0  0  0  0  0  0  0  0
    2.2003    0.5386   -0.1556 Br  0  0  0  0  0 15  0  0  0  0  0  0
   -1.6886   -0.2816    1.2650 C   0  0  0  0  0  0  0  0  0  0  0  0
   -0.5866   -0.2621    1.0785 H   0  0  0  0  0  0  0  0  0  0  0  0
   -1.7136    0.2425    2.2608 H   0  0  0  0  0  0  0  0  0  0  0  0
   -2.5661    0.6372    0.2678 C   0  0  0  0  0  0  0  0  0  0  0  0
   -2.1188    1.5404   -0.0519 H   0  0  0  0  0  0  0  0  0  0  0  0
   -3.5564    0.9373    0.7368 H   0  0  0  0  0  0  0  0  0  0  0  0
   -2.7813   -0.1774   -0.8220 O   0  0  0  0  0  0  0  0  0  0  0  0
  1  8  1  0  0  0  0
  1  2  1  0  0  0  0
  1  3  1  0  0  0  0
  4  1  1  0  0  0  0
  5  4  1  0  0  0  0
  6  4  1  0  0  0  0
  8 10  1  0  0  0  0
  9  8  1  0  0  0  0
 11 13  1  0  0  0  0
 11  8  1  0  0  0  0
 12 11  1  0  0  0  0
 14  4  1  0  0  0  0
 14 11  1  0  0  0  0
M  END
$$$$
Title Card Required
 OpenBabel06272217483D

 14 13  0  0  0  0  0  0  0  0999 V2000
   -2.3489   -1.7271    0.9010 C   0  0  0  0  0  0  0  0  0  0  0  0
   -1.5219   -2.2797    1.2715 H   0  0  0  0  0  0  0  0  0  0  0  0
   -3.2213   -1.6789    1.5658 H   0  0  0  0  0  0  0  0  0  0  0  0
   -2.6587   -1.4987   -0.6805 C   0  0  0  0  0  0  0  0  0  0  0  0
   -3.5183   -2.0043   -1.2298 H   0  0  0  0  0  0  0  0  0  0  0  0
   -1.7064   -1.5777   -1.1922 H   0  0  0  0  0  0  0  0  0  0  0  0
    2.2007    0.5394   -0.1545 Br  0  0  0  0  0 15  0  0  0  0  0  0
   -1.6681   -0.2806    1.2571 C   0  0  0  0  0  0  0  0  0  0  0  0
   -0.6244   -0.2794    1.0492 H   0  0  0  0  0  0  0  0  0  0  0  0
   -1.7288    0.2620    2.2843 H   0  0  0  0  0  0  0  0  0  0  0  0
   -2.5602    0.6257    0.2548 C   0  0  0  0  0  0  0  0  0  0  0  0
   -2.1334    1.6229   -0.0437 H   0  0  0  0  0  0  0  0  0  0  0  0
   -3.5724    0.8732    0.7063 H   0  0  0  0  0  0  0  0  0  0  0  0
   -2.7934   -0.1812   -0.8154 O   0  0  0  0  0  0  0  0  0  0  0  0
  1  8  1  0  0  0  0
  1  2  1  0  0  0  0
  1  3  1  0  0  0  0
  4  1  1  0  0  0  0
  5  4  1  0  0  0  0
  6  4  1  0  0  0  0
  8 10  1  0  0  0  0
  9  8  1  0  0  0  0
 11 13  1  0  0  0  0
 11  8  1  0  0  0  0
 12 11  1  0  0  0  0
 14  4  1  0  0  0  0
 14 11  1  0  0  0  0
M  END
$$$$
Title Card Required
 OpenBabel06272217483D

 14 13  0  0  0  0  0  0  0  0999 V2000
   -2.3613   -1.7337    0.9046 C   0  0  0  0  0  0  0  0  0  0  0  0
   -1.5512   -2.3170    1.1820 H   0  0  0  0  0  0  0  0  0  0  0  0
   -3.1874   -1.6556    1.5688 H   0  0  0  0  0  0  0  0  0  0  0  0
   -2.6531   -1.4813   -0.6783 C   0  0  0  0  0  0  0  0  0  0  0  0
   -3.5109   -1.9413   -1.1351 H   0  0  0  0  0  0  0  0  0  0  0  0
   -1.6750   -1.6919   -1.1660 H   0  0  0  0  0  0  0  0  0  0  0  0
    2.2011    0.5402   -0.1533 Br  0  0  0  0  0 15  0  0  0  0  0  0
   -1.6509   -0.2779    1.2488 C   0  0  0  0  0  0  0  0  0  0  0  0
   -0.6474   -0.2947    1.0102 H   0  0  0  0  0  0  0  0  0  0  0  0
   -1.7481    0.2626    2.2956 H   0  0  0  0  0  0  0  0  0  0  0  0
   -2.5539    0.6145    0.2441 C   0  0  0  0  0  0  0  0  0  0  0  0
   -2.1460    1.6944   -0.0355 H   0  0  0  0  0  0  0  0  0  0  0  0
   -3.5798    0.8087    0.6798 H   0  0  0  0  0  0  0  0  0  0  0  0
   -2.8067   -0.1823   -0.8105 O   0  0  0  0  0  0  0  0  0  0  0  0
  1  2  1  0  0  0  0
  1  8  1  0  0  0  0
  1  3  1  0  0  0  0
  4  1  1  0  0  0  0
  5  4  1  0  0  0  0
  6  4  1  0  0  0  0
  8 10  1  0  0  0  0
  9  8  1  0  0  0  0
 11 13  1  0  0  0  0
 11  8  1  0  0  0  0
 12 11  1  0  0  0  0
 14  4  1  0  0  0  0
 14 11  1  0  0  0  0
M  END
$$$$
Title Card Required
 OpenBabel06272217483D

 14 13  0  0  0  0  0  0  0  0999 V2000
   -2.3737   -1.7359    0.9071 C   0  0  0  0  0  0  0  0  0  0  0  0
   -1.5697   -2.3838    1.0931 H   0  0  0  0  0  0  0  0  0  0  0  0
   -3.1674   -1.6433    1.5779 H   0  0  0  0  0  0  0  0  0  0  0  0
   -2.6445   -1.4656   -0.6733 C   0  0  0  0  0  0  0  0  0  0  0  0
   -3.5093   -1.8899   -1.0383 H   0  0  0  0  0  0  0  0  0  0  0  0
   -1.6478   -1.8220   -1.1413 H   0  0  0  0  0  0  0  0  0  0  0  0
    2.2015    0.5410   -0.1521 Br  0  0  0  0  0 15  0  0  0  0  0  0
   -1.6377   -0.2735    1.2404 C   0  0  0  0  0  0  0  0  0  0  0  0
   -0.6406   -0.3080    0.9584 H   0  0  0  0  0  0  0  0  0  0  0  0
   -1.7685    0.2428    2.2891 H   0  0  0  0  0  0  0  0  0  0  0  0
   -2.5465    0.6046    0.2354 C   0  0  0  0  0  0  0  0  0  0  0  0
   -2.1629    1.7410   -0.0240 H   0  0  0  0  0  0  0  0  0  0  0  0
   -3.5787    0.7447    0.6596 H   0  0  0  0  0  0  0  0  0  0  0  0
   -2.8213   -0.1807   -0.8077 O   0  0  0  0  0  0  0  0  0  0  0  0
  1  2  1  0  0  0  0
  1  8  1  0  0  0  0
  1  3  1  0  0  0  0
  4  1  1  0  0  0  0
  5  4  1  0  0  0  0
  6  4  1  0  0  0  0
  8 10  1  0  0  0  0
  9  8  1  0  0  0  0
 11 13  1  0  0  0  0
 11  8  1  0  0  0  0
 12 11  1  0  0  0  0
 14  4  1  0  0  0  0
 14 11  1  0  0  0  0
M  END
$$$$
Title Card Required
 OpenBabel06272217483D

 14 13  0  0  0  0  0  0  0  0999 V2000
   -2.3843   -1.7333    0.9079 C   0  0  0  0  0  0  0  0  0  0  0  0
   -1.5819   -2.4750    1.0075 H   0  0  0  0  0  0  0  0  0  0  0  0
   -3.1704   -1.6434    1.5994 H   0  0  0  0  0  0  0  0  0  0  0  0
   -2.6312   -1.4527   -0.6646 C   0  0  0  0  0  0  0  0  0  0  0  0
   -3.5305   -1.8633   -0.9519 H   0  0  0  0  0  0  0  0  0  0  0  0
   -1.6381   -1.9538   -1.1157 H   0  0  0  0  0  0  0  0  0  0  0  0
    2.2019    0.5418   -0.1509 Br  0  0  0  0  0 15  0  0  0  0  0  0
   -1.6291   -0.2680    1.2319 C   0  0  0  0  0  0  0  0  0  0  0  0
   -0.6035   -0.3182    0.8967 H   0  0  0  0  0  0  0  0  0  0  0  0
   -1.7861    0.2033    2.2632 H   0  0  0  0  0  0  0  0  0  0  0  0
   -2.5381    0.5972    0.2296 C   0  0  0  0  0  0  0  0  0  0  0  0
   -2.1857    1.7517   -0.0088 H   0  0  0  0  0  0  0  0  0  0  0  0
   -3.5694    0.6862    0.6502 H   0  0  0  0  0  0  0  0  0  0  0  0
   -2.8365   -0.1764   -0.8079 O   0  0  0  0  0  0  0  0  0  0  0  0
  1  2  1  0  0  0  0
  1  8  1  0  0  0  0
  1  3  1  0  0  0  0
  4  1  1  0  0  0  0
  5  4  1  0  0  0  0
  6  4  1  0  0  0  0
  8 10  1  0  0  0  0
  9  8  1  0  0  0  0
 11 13  1  0  0  0  0
 11  8  1  0  0  0  0
 12 11  1  0  0  0  0
 14  4  1  0  0  0  0
 14 11  1  0  0  0  0
M  END
$$$$
Title Card Required
 OpenBabel06272217483D

 14 13  0  0  0  0  0  0  0  0999 V2000
   -2.3915   -1.7270    0.9070 C   0  0  0  0  0  0  0  0  0  0  0  0
   -1.6027   -2.5730    0.9283 H   0  0  0  0  0  0  0  0  0  0  0  0
   -3.1948   -1.6565    1.6305 H   0  0  0  0  0  0  0  0  0  0  0  0
   -2.6140   -1.4440   -0.6525 C   0  0  0  0  0  0  0  0  0  0  0  0
   -3.5756   -1.8654   -0.8806 H   0  0  0  0  0  0  0  0  0  0  0  0
   -1.6541   -2.0711   -1.0889 H   0  0  0  0  0  0  0  0  0  0  0  0
    2.2022    0.5426   -0.1496 Br  0  0  0  0  0 15  0  0  0  0  0  0
   -1.6236   -0.2623    1.2222 C   0  0  0  0  0  0  0  0  0  0  0  0
   -0.5552   -0.3236    0.8343 H   0  0  0  0  0  0  0  0  0  0  0  0
   -1.7980    0.1497    2.2244 H   0  0  0  0  0  0  0  0  0  0  0  0
   -2.5290    0.5930    0.2273 C   0  0  0  0  0  0  0  0  0  0  0  0
   -2.2134    1.7239    0.0090 H   0  0  0  0  0  0  0  0  0  0  0  0
   -3.5539    0.6385    0.6555 H   0  0  0  0  0  0  0  0  0  0  0  0
   -2.8516   -0.1697   -0.8118 O   0  0  0  0  0  0  0  0  0  0  0  0
  1  2  1  0  0  0  0
  1  8  1  0  0  0  0
  1  3  1  0  0  0  0
  4  1  1  0  0  0  0
  5  4  1  0  0  0  0
  6  4  1  0  0  0  0
  8 10  1  0  0  0  0
  9  8  1  0  0  0  0
 11 13  1  0  0  0  0
 11  8  1  0  0  0  0
 12 11  1  0  0  0  0
 14  4  1  0  0  0  0
 14 11  1  0  0  0  0
M  END
$$$$
Title Card Required
 OpenBabel06272217483D

 14 13  0  0  0  0  0  0  0  0999 V2000
   -2.3946   -1.7178    0.9052 C   0  0  0  0  0  0  0  0  0  0  0  0
   -1.6458   -2.6608    0.8580 H   0  0  0  0  0  0  0  0  0  0  0  0
   -3.2303   -1.6831    1.6609 H   0  0  0  0  0  0  0  0  0  0  0  0
   -2.5949   -1.4412   -0.6370 C   0  0  0  0  0  0  0  0  0  0  0  0
   -3.6272   -1.8894   -0.8201 H   0  0  0  0  0  0  0  0  0  0  0  0
   -1.6988   -2.1638   -1.0615 H   0  0  0  0  0  0  0  0  0  0  0  0
    2.2026    0.5435   -0.1483 Br  0  0  0  0  0 15  0  0  0  0  0  0
   -1.6192   -0.2575    1.2093 C   0  0  0  0  0  0  0  0  0  0  0  0
   -0.5158   -0.3228    0.7799 H   0  0  0  0  0  0  0  0  0  0  0  0
   -1.8033    0.0897    2.1867 H   0  0  0  0  0  0  0  0  0  0  0  0
   -2.5193    0.5915    0.2292 C   0  0  0  0  0  0  0  0  0  0  0  0
   -2.2433    1.6625    0.0277 H   0  0  0  0  0  0  0  0  0  0  0  0
   -3.5338    0.6040    0.6790 H   0  0  0  0  0  0  0  0  0  0  0  0
   -2.8663   -0.1610   -0.8200 O   0  0  0  0  0  0  0  0  0  0  0  0
  1  8  1  0  0  0  0
  1  3  1  0  0  0  0
  2  1  1  0  0  0  0
  4  1  1  0  0  0  0
  5  4  1  0  0  0  0
  6  4  1  0  0  0  0
  8 10  1  0  0  0  0
  9  8  1  0  0  0  0
 11 13  1  0  0  0  0
 11  8  1  0  0  0  0
 12 11  1  0  0  0  0
 14  4  1  0  0  0  0
 14 11  1  0  0  0  0
M  END
$$$$
Title Card Required
 OpenBabel06272217483D

 14 13  0  0  0  0  0  0  0  0999 V2000
   -2.3936   -1.7064    0.9031 C   0  0  0  0  0  0  0  0  0  0  0  0
   -1.7195   -2.7242    0.8019 H   0  0  0  0  0  0  0  0  0  0  0  0
   -3.2639   -1.7231    1.6768 H   0  0  0  0  0  0  0  0  0  0  0  0
   -2.5770   -1.4455   -0.6181 C   0  0  0  0  0  0  0  0  0  0  0  0
   -3.6628   -1.9262   -0.7669 H   0  0  0  0  0  0  0  0  0  0  0  0
   -1.7726   -2.2224   -1.0361 H   0  0  0  0  0  0  0  0  0  0  0  0
    2.2029    0.5443   -0.1470 Br  0  0  0  0  0 15  0  0  0  0  0  0
   -1.6141   -0.2551    1.1903 C   0  0  0  0  0  0  0  0  0  0  0  0
   -0.5000   -0.3144    0.7411 H   0  0  0  0  0  0  0  0  0  0  0  0
   -1.8021    0.0315    2.1703 H   0  0  0  0  0  0  0  0  0  0  0  0
   -2.5097    0.5915    0.2360 C   0  0  0  0  0  0  0  0  0  0  0  0
   -2.2690    1.5851    0.0433 H   0  0  0  0  0  0  0  0  0  0  0  0
   -3.5097    0.5848    0.7237 H   0  0  0  0  0  0  0  0  0  0  0  0
   -2.8804   -0.1506   -0.8331 O   0  0  0  0  0  0  0  0  0  0  0  0
  1  8  1  0  0  0  0
  1  3  1  0  0  0  0
  2  1  1  0  0  0  0
  4  1  1  0  0  0  0
  5  4  1  0  0  0  0
  6  4  1  0  0  0  0
  8 10  1  0  0  0  0
  9  8  1  0  0  0  0
 11 13  1  0  0  0  0
 11  8  1  0  0  0  0
 12 11  1  0  0  0  0
 14  4  1  0  0  0  0
 14 11  1  0  0  0  0
M  END
$$$$
Title Card Required
 OpenBabel06272217483D

 14 13  0  0  0  0  0  0  0  0999 V2000
   -2.3888   -1.6938    0.9015 C   0  0  0  0  0  0  0  0  0  0  0  0
   -1.8202   -2.7505    0.7692 H   0  0  0  0  0  0  0  0  0  0  0  0
   -3.2826   -1.7709    1.6657 H   0  0  0  0  0  0  0  0  0  0  0  0
   -2.5644   -1.4573   -0.5967 C   0  0  0  0  0  0  0  0  0  0  0  0
   -3.6646   -1.9663   -0.7221 H   0  0  0  0  0  0  0  0  0  0  0  0
   -1.8650   -2.2387   -1.0196 H   0  0  0  0  0  0  0  0  0  0  0  0
    2.2032    0.5452   -0.1455 Br  0  0  0  0  0 15  0  0  0  0  0  0
   -1.6075   -0.2560    1.1648 C   0  0  0  0  0  0  0  0  0  0  0  0
   -0.5148   -0.2985    0.7245 H   0  0  0  0  0  0  0  0  0  0  0  0
   -1.7935   -0.0169    2.1873 H   0  0  0  0  0  0  0  0  0  0  0  0
   -2.5023    0.5892    0.2482 C   0  0  0  0  0  0  0  0  0  0  0  0
   -2.2772    1.5365    0.0469 H   0  0  0  0  0  0  0  0  0  0  0  0
   -3.4817    0.5828    0.7871 H   0  0  0  0  0  0  0  0  0  0  0  0
   -2.8928   -0.1397   -0.8505 O   0  0  0  0  0  0  0  0  0  0  0  0
  1  8  1  0  0  0  0
  1  3  1  0  0  0  0
  2  1  1  0  0  0  0
  4  1  1  0  0  0  0
  5  4  1  0  0  0  0
  6  4  1  0  0  0  0
  8 10  1  0  0  0  0
  9  8  1  0  0  0  0
 11 13  1  0  0  0  0
 11  8  1  0  0  0  0
 12 11  1  0  0  0  0
 14  4  1  0  0  0  0
 14 11  1  0  0  0  0
M  END
$$$$
Title Card Required
 OpenBabel06272217483D

 14 13  0  0  0  0  0  0  0  0999 V2000
   -2.3818   -1.6820    0.9006 C   0  0  0  0  0  0  0  0  0  0  0  0
   -1.9266   -2.7402    0.7647 H   0  0  0  0  0  0  0  0  0  0  0  0
   -3.2815   -1.8149    1.6278 H   0  0  0  0  0  0  0  0  0  0  0  0
   -2.5604   -1.4735   -0.5753 C   0  0  0  0  0  0  0  0  0  0  0  0
   -3.6323   -2.0006   -0.6887 H   0  0  0  0  0  0  0  0  0  0  0  0
   -1.9492   -2.2218   -1.0212 H   0  0  0  0  0  0  0  0  0  0  0  0
    2.2034    0.5460   -0.1441 Br  0  0  0  0  0 15  0  0  0  0  0  0
   -1.6004   -0.2600    1.1376 C   0  0  0  0  0  0  0  0  0  0  0  0
   -0.5508   -0.2793    0.7285 H   0  0  0  0  0  0  0  0  0  0  0  0
   -1.7750   -0.0532    2.2193 H   0  0  0  0  0  0  0  0  0  0  0  0
   -2.4987    0.5826    0.2642 C   0  0  0  0  0  0  0  0  0  0  0  0
   -2.2601    1.5501    0.0338 H   0  0  0  0  0  0  0  0  0  0  0  0
   -3.4518    0.5955    0.8565 H   0  0  0  0  0  0  0  0  0  0  0  0
   -2.9021   -0.1300   -0.8694 O   0  0  0  0  0  0  0  0  0  0  0  0
  1  8  1  0  0  0  0
  1  3  1  0  0  0  0
  2  1  1  0  0  0  0
  4  1  1  0  0  0  0
  5  4  1  0  0  0  0
  6  4  1  0  0  0  0
  8 10  1  0  0  0  0
  9  8  1  0  0  0  0
 11 13  1  0  0  0  0
 11  8  1  0  0  0  0
 12 11  1  0  0  0  0
 14  4  1  0  0  0  0
 14 11  1  0  0  0  0
M  END
$$$$
Title Card Required
 OpenBabel06272217483D

 14 13  0  0  0  0  0  0  0  0999 V2000
   -2.3737   -1.6708    0.9002 C   0  0  0  0  0  0  0  0  0  0  0  0
   -2.0230   -2.7093    0.7833 H   0  0  0  0  0  0  0  0  0  0  0  0
   -3.2667   -1.8484    1.5723 H   0  0  0  0  0  0  0  0  0  0  0  0
   -2.5653   -1.4906   -0.5543 C   0  0  0  0  0  0  0  0  0  0  0  0
   -3.5787   -2.0275   -0.6648 H   0  0  0  0  0  0  0  0  0  0  0  0
   -2.0056   -2.1944   -1.0481 H   0  0  0  0  0  0  0  0  0  0  0  0
    2.2036    0.5468   -0.1428 Br  0  0  0  0  0 15  0  0  0  0  0  0
   -1.5937   -0.2663    1.1122 C   0  0  0  0  0  0  0  0  0  0  0  0
   -0.5894   -0.2601    0.7427 H   0  0  0  0  0  0  0  0  0  0  0  0
   -1.7455   -0.0814    2.2426 H   0  0  0  0  0  0  0  0  0  0  0  0
   -2.4987    0.5739    0.2818 C   0  0  0  0  0  0  0  0  0  0  0  0
   -2.2262    1.6000    0.0116 H   0  0  0  0  0  0  0  0  0  0  0  0
   -3.4206    0.6184    0.9236 H   0  0  0  0  0  0  0  0  0  0  0  0
   -2.9088   -0.1218   -0.8882 O   0  0  0  0  0  0  0  0  0  0  0  0
  1  8  1  0  0  0  0
  1  3  1  0  0  0  0
  2  1  1  0  0  0  0
  4  1  1  0  0  0  0
  5  4  1  0  0  0  0
  6  4  1  0  0  0  0
  8 10  1  0  0  0  0
  9  8  1  0  0  0  0
 11 13  1  0  0  0  0
 11  8  1  0  0  0  0
 12 11  1  0  0  0  0
 14  4  1  0  0  0  0
 14 11  1  0  0  0  0
M  END
$$$$
Title Card Required
 OpenBabel06272217483D

 14 13  0  0  0  0  0  0  0  0999 V2000
   -2.3642   -1.6587    0.9001 C   0  0  0  0  0  0  0  0  0  0  0  0
   -2.1005   -2.6761    0.8216 H   0  0  0  0  0  0  0  0  0  0  0  0
   -3.2472   -1.8685    1.5060 H   0  0  0  0  0  0  0  0  0  0  0  0
   -2.5790   -1.5077   -0.5328 C   0  0  0  0  0  0  0  0  0  0  0  0
   -3.5162   -2.0507   -0.6484 H   0  0  0  0  0  0  0  0  0  0  0  0
   -2.0253   -2.1691   -1.1070 H   0  0  0  0  0  0  0  0  0  0  0  0
    2.2038    0.5476   -0.1415 Br  0  0  0  0  0 15  0  0  0  0  0  0
   -1.5884   -0.2752    1.0896 C   0  0  0  0  0  0  0  0  0  0  0  0
   -0.6110   -0.2423    0.7572 H   0  0  0  0  0  0  0  0  0  0  0  0
   -1.7037   -0.1044    2.2446 H   0  0  0  0  0  0  0  0  0  0  0  0
   -2.5014    0.5659    0.3002 C   0  0  0  0  0  0  0  0  0  0  0  0
   -2.1846    1.6507   -0.0100 H   0  0  0  0  0  0  0  0  0  0  0  0
   -3.3873    0.6497    0.9872 H   0  0  0  0  0  0  0  0  0  0  0  0
   -2.9134   -0.1149   -0.9069 O   0  0  0  0  0  0  0  0  0  0  0  0
  1  8  1  0  0  0  0
  1  3  1  0  0  0  0
  2  1  1  0  0  0  0
  4  1  1  0  0  0  0
  5  4  1  0  0  0  0
  6  4  1  0  0  0  0
  8 10  1  0  0  0  0
  9  8  1  0  0  0  0
 11 13  1  0  0  0  0
 11  8  1  0  0  0  0
 12 11  1  0  0  0  0
 14  4  1  0  0  0  0
 14 11  1  0  0  0  0
M  END
$$$$
Title Card Required
 OpenBabel06272217483D

 14 13  0  0  0  0  0  0  0  0999 V2000
   -2.3530   -1.6442    0.8997 C   0  0  0  0  0  0  0  0  0  0  0  0
   -2.1452   -2.6630    0.8780 H   0  0  0  0  0  0  0  0  0  0  0  0
   -3.2373   -1.8697    1.4394 H   0  0  0  0  0  0  0  0  0  0  0  0
   -2.6005   -1.5243   -0.5116 C   0  0  0  0  0  0  0  0  0  0  0  0
   -3.4661   -2.0779   -0.6409 H   0  0  0  0  0  0  0  0  0  0  0  0
   -2.0075   -2.1422   -1.1951 H   0  0  0  0  0  0  0  0  0  0  0  0
    2.2039    0.5484   -0.1401 Br  0  0  0  0  0 15  0  0  0  0  0  0
   -1.5853   -0.2873    1.0711 C   0  0  0  0  0  0  0  0  0  0  0  0
   -0.5953   -0.2269    0.7627 H   0  0  0  0  0  0  0  0  0  0  0  0
   -1.6493   -0.1219    2.2182 H   0  0  0  0  0  0  0  0  0  0  0  0
   -2.5066    0.5611    0.3185 C   0  0  0  0  0  0  0  0  0  0  0  0
   -2.1424    1.6758   -0.0225 H   0  0  0  0  0  0  0  0  0  0  0  0
   -3.3528    0.6890    1.0440 H   0  0  0  0  0  0  0  0  0  0  0  0
   -2.9162   -0.1095   -0.9250 O   0  0  0  0  0  0  0  0  0  0  0  0
  1  8  1  0  0  0  0
  1  3  1  0  0  0  0
  2  1  1  0  0  0  0
  4  1  1  0  0  0  0
  5  4  1  0  0  0  0
  6  4  1  0  0  0  0
  8 10  1  0  0  0  0
  9  8  1  0  0  0  0
 11 13  1  0  0  0  0
 11  8  1  0  0  0  0
 12 11  1  0  0  0  0
 14  4  1  0  0  0  0
 14 11  1  0  0  0  0
M  END
$$$$
Title Card Required
 OpenBabel06272217483D

 14 13  0  0  0  0  0  0  0  0999 V2000
   -2.3397   -1.6273    0.8986 C   0  0  0  0  0  0  0  0  0  0  0  0
   -2.1457   -2.6817    0.9488 H   0  0  0  0  0  0  0  0  0  0  0  0
   -3.2528   -1.8474    1.3879 H   0  0  0  0  0  0  0  0  0  0  0  0
   -2.6256   -1.5395   -0.4949 C   0  0  0  0  0  0  0  0  0  0  0  0
   -3.4578   -2.1199   -0.6452 H   0  0  0  0  0  0  0  0  0  0  0  0
   -1.9675   -2.0992   -1.2873 H   0  0  0  0  0  0  0  0  0  0  0  0
    2.2041    0.5492   -0.1386 Br  0  0  0  0  0 15  0  0  0  0  0  0
   -1.5837   -0.3021    1.0582 C   0  0  0  0  0  0  0  0  0  0  0  0
   -0.5437   -0.2167    0.7554 H   0  0  0  0  0  0  0  0  0  0  0  0
   -1.5876   -0.1313    2.1667 H   0  0  0  0  0  0  0  0  0  0  0  0
   -2.5135    0.5614    0.3344 C   0  0  0  0  0  0  0  0  0  0  0  0
   -2.1074    1.6602   -0.0197 H   0  0  0  0  0  0  0  0  0  0  0  0
   -3.3218    0.7327    1.0873 H   0  0  0  0  0  0  0  0  0  0  0  0
   -2.9174   -0.1059   -0.9405 O   0  0  0  0  0  0  0  0  0  0  0  0
  1  2  1  0  0  0  0
  1  8  1  0  0  0  0
  1  3  1  0  0  0  0
  4  1  1  0  0  0  0
  5  4  1  0  0  0  0
  6  4  1  0  0  0  0
  8 10  1  0  0  0  0
  9  8  1  0  0  0  0
 11  8  1  0  0  0  0
 11 13  1  0  0  0  0
 12 11  1  0  0  0  0
 14  4  1  0  0  0  0
 14 11  1  0  0  0  0
M  END
$$$$
Title Card Required
 OpenBabel06272217483D

 14 13  0  0  0  0  0  0  0  0999 V2000
   -2.3252   -1.6113    0.8971 C   0  0  0  0  0  0  0  0  0  0  0  0
   -2.1086   -2.7131    1.0269 H   0  0  0  0  0  0  0  0  0  0  0  0
   -3.2920   -1.8023    1.3575 H   0  0  0  0  0  0  0  0  0  0  0  0
   -2.6500   -1.5530   -0.4861 C   0  0  0  0  0  0  0  0  0  0  0  0
   -3.4941   -2.1765   -0.6608 H   0  0  0  0  0  0  0  0  0  0  0  0
   -1.9271   -2.0350   -1.3548 H   0  0  0  0  0  0  0  0  0  0  0  0
    2.2041    0.5499   -0.1372 Br  0  0  0  0  0 15  0  0  0  0  0  0
   -1.5813   -0.3180    1.0499 C   0  0  0  0  0  0  0  0  0  0  0  0
   -0.4847   -0.2144    0.7394 H   0  0  0  0  0  0  0  0  0  0  0  0
   -1.5265   -0.1306    2.1083 H   0  0  0  0  0  0  0  0  0  0  0  0
   -2.5208    0.5666    0.3465 C   0  0  0  0  0  0  0  0  0  0  0  0
   -2.0834    1.6071   -0.0019 H   0  0  0  0  0  0  0  0  0  0  0  0
   -3.2996    0.7758    1.1140 H   0  0  0  0  0  0  0  0  0  0  0  0
   -2.9173   -0.1043   -0.9517 O   0  0  0  0  0  0  0  0  0  0  0  0
  1  2  1  0  0  0  0
  1  8  1  0  0  0  0
  1  3  1  0  0  0  0
  4  1  1  0  0  0  0
  5  4  1  0  0  0  0
  6  4  1  0  0  0  0
  8 10  1  0  0  0  0
  9  8  1  0  0  0  0
 11  8  1  0  0  0  0
 11 13  1  0  0  0  0
 12 11  1  0  0  0  0
 14  4  1  0  0  0  0
 14 11  1  0  0  0  0
M  END
$$$$
Title Card Required
 OpenBabel06272217483D

 14 13  0  0  0  0  0  0  0  0999 V2000
   -2.3107   -1.5986    0.8959 C   0  0  0  0  0  0  0  0  0  0  0  0
   -2.0474   -2.7316    1.1074 H   0  0  0  0  0  0  0  0  0  0  0  0
   -3.3387   -1.7365    1.3424 H   0  0  0  0  0  0  0  0  0  0  0  0
   -2.6736   -1.5658   -0.4861 C   0  0  0  0  0  0  0  0  0  0  0  0
   -3.5524   -2.2358   -0.6828 H   0  0  0  0  0  0  0  0  0  0  0  0
   -1.8985   -1.9534   -1.3878 H   0  0  0  0  0  0  0  0  0  0  0  0
    2.2042    0.5507   -0.1358 Br  0  0  0  0  0 15  0  0  0  0  0  0
   -1.5761   -0.3342    1.0439 C   0  0  0  0  0  0  0  0  0  0  0  0
   -0.4413   -0.2217    0.7183 H   0  0  0  0  0  0  0  0  0  0  0  0
   -1.4678   -0.1189    2.0628 H   0  0  0  0  0  0  0  0  0  0  0  0
   -2.5280    0.5752    0.3552 C   0  0  0  0  0  0  0  0  0  0  0  0
   -2.0678    1.5303    0.0264 H   0  0  0  0  0  0  0  0  0  0  0  0
   -3.2879    0.8167    1.1264 H   0  0  0  0  0  0  0  0  0  0  0  0
   -2.9164   -0.1047   -0.9587 O   0  0  0  0  0  0  0  0  0  0  0  0
  1  8  1  0  0  0  0
  1  2  1  0  0  0  0
  1  3  1  0  0  0  0
  4  1  1  0  0  0  0
  5  4  1  0  0  0  0
  6  4  1  0  0  0  0
  8 10  1  0  0  0  0
  9  8  1  0  0  0  0
 11  8  1  0  0  0  0
 11 13  1  0  0  0  0
 12 11  1  0  0  0  0
 14  4  1  0  0  0  0
 14 11  1  0  0  0  0
M  END
$$$$
Title Card Required
 OpenBabel06272217483D

 14 13  0  0  0  0  0  0  0  0999 V2000
   -2.2973   -1.5908    0.8957 C   0  0  0  0  0  0  0  0  0  0  0  0
   -1.9724   -2.7208    1.1867 H   0  0  0  0  0  0  0  0  0  0  0  0
   -3.3765   -1.6517    1.3369 H   0  0  0  0  0  0  0  0  0  0  0  0
   -2.6975   -1.5788   -0.4951 C   0  0  0  0  0  0  0  0  0  0  0  0
   -3.6107   -2.2849   -0.7062 H   0  0  0  0  0  0  0  0  0  0  0  0
   -1.8873   -1.8600   -1.3838 H   0  0  0  0  0  0  0  0  0  0  0  0
    2.2042    0.5514   -0.1344 Br  0  0  0  0  0 15  0  0  0  0  0  0
   -1.5672   -0.3501    1.0380 C   0  0  0  0  0  0  0  0  0  0  0  0
   -0.4235   -0.2393    0.6927 H   0  0  0  0  0  0  0  0  0  0  0  0
   -1.4103   -0.0955    2.0436 H   0  0  0  0  0  0  0  0  0  0  0  0
   -2.5348    0.5854    0.3612 C   0  0  0  0  0  0  0  0  0  0  0  0
   -2.0526    1.4500    0.0575 H   0  0  0  0  0  0  0  0  0  0  0  0
   -3.2873    0.8550    1.1267 H   0  0  0  0  0  0  0  0  0  0  0  0
   -2.9153   -0.1067   -0.9614 O   0  0  0  0  0  0  0  0  0  0  0  0
  1  8  1  0  0  0  0
  1  2  1  0  0  0  0
  1  3  1  0  0  0  0
  4  1  1  0  0  0  0
  5  4  1  0  0  0  0
  6  4  1  0  0  0  0
  8 10  1  0  0  0  0
  9  8  1  0  0  0  0
 11  8  1  0  0  0  0
 11 13  1  0  0  0  0
 12 11  1  0  0  0  0
 14  4  1  0  0  0  0
 14 11  1  0  0  0  0
M  END
$$$$
Title Card Required
 OpenBabel06272217483D

 14 13  0  0  0  0  0  0  0  0999 V2000
   -2.2862   -1.5886    0.8969 C   0  0  0  0  0  0  0  0  0  0  0  0
   -1.8935   -2.6735    1.2590 H   0  0  0  0  0  0  0  0  0  0  0  0
   -3.3918   -1.5537    1.3375 H   0  0  0  0  0  0  0  0  0  0  0  0
   -2.7217   -1.5922   -0.5126 C   0  0  0  0  0  0  0  0  0  0  0  0
   -3.6538   -2.3139   -0.7272 H   0  0  0  0  0  0  0  0  0  0  0  0
   -1.8964   -1.7645   -1.3447 H   0  0  0  0  0  0  0  0  0  0  0  0
    2.2042    0.5521   -0.1330 Br  0  0  0  0  0 15  0  0  0  0  0  0
   -1.5547   -0.3645    1.0320 C   0  0  0  0  0  0  0  0  0  0  0  0
   -0.4350   -0.2668    0.6626 H   0  0  0  0  0  0  0  0  0  0  0  0
   -1.3550   -0.0629    2.0510 H   0  0  0  0  0  0  0  0  0  0  0  0
   -2.5419    0.5940    0.3653 C   0  0  0  0  0  0  0  0  0  0  0  0
   -2.0234    1.3979    0.0795 H   0  0  0  0  0  0  0  0  0  0  0  0
   -3.2981    0.8893    1.1160 H   0  0  0  0  0  0  0  0  0  0  0  0
   -2.9141   -0.1101   -0.9598 O   0  0  0  0  0  0  0  0  0  0  0  0
  1  8  1  0  0  0  0
  1  2  1  0  0  0  0
  1  3  1  0  0  0  0
  4  1  1  0  0  0  0
  5  4  1  0  0  0  0
  6  4  1  0  0  0  0
  8 10  1  0  0  0  0
  9  8  1  0  0  0  0
 11  8  1  0  0  0  0
 11 13  1  0  0  0  0
 12 11  1  0  0  0  0
 14  4  1  0  0  0  0
 14 11  1  0  0  0  0
M  END
$$$$
Title Card Required
 OpenBabel06272217483D

 14 13  0  0  0  0  0  0  0  0999 V2000
   -2.2787   -1.5917    0.8994 C   0  0  0  0  0  0  0  0  0  0  0  0
   -1.8223   -2.5954    1.3175 H   0  0  0  0  0  0  0  0  0  0  0  0
   -3.3786   -1.4552    1.3424 H   0  0  0  0  0  0  0  0  0  0  0  0
   -2.7449   -1.6048   -0.5358 C   0  0  0  0  0  0  0  0  0  0  0  0
   -3.6738   -2.3189   -0.7438 H   0  0  0  0  0  0  0  0  0  0  0  0
   -1.9210   -1.6821   -1.2830 H   0  0  0  0  0  0  0  0  0  0  0  0
    2.2042    0.5528   -0.1316 Br  0  0  0  0  0 15  0  0  0  0  0  0
   -1.5396   -0.3756    1.0266 C   0  0  0  0  0  0  0  0  0  0  0  0
   -0.4704   -0.3010    0.6287 H   0  0  0  0  0  0  0  0  0  0  0  0
   -1.3068   -0.0293    2.0703 H   0  0  0  0  0  0  0  0  0  0  0  0
   -2.5490    0.5988    0.3679 C   0  0  0  0  0  0  0  0  0  0  0  0
   -1.9720    1.3943    0.0837 H   0  0  0  0  0  0  0  0  0  0  0  0
   -3.3178    0.9174    1.0964 H   0  0  0  0  0  0  0  0  0  0  0  0
   -2.9134   -0.1145   -0.9541 O   0  0  0  0  0  0  0  0  0  0  0  0
  1  8  1  0  0  0  0
  1  2  1  0  0  0  0
  1  3  1  0  0  0  0
  4  1  1  0  0  0  0
  5  4  1  0  0  0  0
  6  4  1  0  0  0  0
  8 10  1  0  0  0  0
  9  8  1  0  0  0  0
 11  8  1  0  0  0  0
 11 13  1  0  0  0  0
 12 11  1  0  0  0  0
 14  4  1  0  0  0  0
 14 11  1  0  0  0  0
M  END
$$$$
Title Card Required
 OpenBabel06272217483D

 14 13  0  0  0  0  0  0  0  0999 V2000
   -2.2747   -1.5985    0.9027 C   0  0  0  0  0  0  0  0  0  0  0  0
   -1.7629   -2.4993    1.3622 H   0  0  0  0  0  0  0  0  0  0  0  0
   -3.3396   -1.3644    1.3511 H   0  0  0  0  0  0  0  0  0  0  0  0
   -2.7670   -1.6159   -0.5614 C   0  0  0  0  0  0  0  0  0  0  0  0
   -3.6732   -2.3034   -0.7571 H   0  0  0  0  0  0  0  0  0  0  0  0
   -1.9476   -1.6215   -1.2178 H   0  0  0  0  0  0  0  0  0  0  0  0
    2.2041    0.5535   -0.1302 Br  0  0  0  0  0 15  0  0  0  0  0  0
   -1.5233   -0.3830    1.0229 C   0  0  0  0  0  0  0  0  0  0  0  0
   -0.5179   -0.3383    0.5897 H   0  0  0  0  0  0  0  0  0  0  0  0
   -1.2678   -0.0014    2.0857 H   0  0  0  0  0  0  0  0  0  0  0  0
   -2.5552    0.6007    0.3689 C   0  0  0  0  0  0  0  0  0  0  0  0
   -1.9086    1.4241    0.0748 H   0  0  0  0  0  0  0  0  0  0  0  0
   -3.3431    0.9391    1.0698 H   0  0  0  0  0  0  0  0  0  0  0  0
   -2.9133   -0.1194   -0.9449 O   0  0  0  0  0  0  0  0  0  0  0  0
  1  8  1  0  0  0  0
  1  3  1  0  0  0  0
  1  2  1  0  0  0  0
  4  1  1  0  0  0  0
  5  4  1  0  0  0  0
  6  4  1  0  0  0  0
  8 10  1  0  0  0  0
  9  8  1  0  0  0  0
 11  8  1  0  0  0  0
 11 13  1  0  0  0  0
 12 11  1  0  0  0  0
 14  4  1  0  0  0  0
 14 11  1  0  0  0  0
M  END
$$$$
Title Card Required
 OpenBabel06272217483D

 14 13  0  0  0  0  0  0  0  0999 V2000
   -2.2741   -1.6077    0.9066 C   0  0  0  0  0  0  0  0  0  0  0  0
   -1.7118   -2.3948    1.3986 H   0  0  0  0  0  0  0  0  0  0  0  0
   -3.2770   -1.2828    1.3653 H   0  0  0  0  0  0  0  0  0  0  0  0
   -2.7899   -1.6255   -0.5880 C   0  0  0  0  0  0  0  0  0  0  0  0
   -3.6583   -2.2723   -0.7708 H   0  0  0  0  0  0  0  0  0  0  0  0
   -1.9586   -1.5854   -1.1666 H   0  0  0  0  0  0  0  0  0  0  0  0
    2.2040    0.5542   -0.1288 Br  0  0  0  0  0 15  0  0  0  0  0  0
   -1.5064   -0.3869    1.0210 C   0  0  0  0  0  0  0  0  0  0  0  0
   -0.5654   -0.3780    0.5392 H   0  0  0  0  0  0  0  0  0  0  0  0
   -1.2368    0.0175    2.0882 H   0  0  0  0  0  0  0  0  0  0  0  0
   -2.5590    0.6016    0.3676 C   0  0  0  0  0  0  0  0  0  0  0  0
   -1.8481    1.4647    0.0607 H   0  0  0  0  0  0  0  0  0  0  0  0
   -3.3731    0.9556    1.0356 H   0  0  0  0  0  0  0  0  0  0  0  0
   -2.9142   -0.1247   -0.9320 O   0  0  0  0  0  0  0  0  0  0  0  0
  1  8  1  0  0  0  0
  1  3  1  0  0  0  0
  1  2  1  0  0  0  0
  4  1  1  0  0  0  0
  5  4  1  0  0  0  0
  6  4  1  0  0  0  0
  8 10  1  0  0  0  0
  9  8  1  0  0  0  0
 11  8  1  0  0  0  0
 11 13  1  0  0  0  0
 12 11  1  0  0  0  0
 14  4  1  0  0  0  0
 14 11  1  0  0  0  0
M  END
$$$$
Title Card Required
 OpenBabel06272217483D

 14 13  0  0  0  0  0  0  0  0999 V2000
   -2.2772   -1.6178    0.9106 C   0  0  0  0  0  0  0  0  0  0  0  0
   -1.6634   -2.2973    1.4341 H   0  0  0  0  0  0  0  0  0  0  0  0
   -3.1939   -1.2144    1.3896 H   0  0  0  0  0  0  0  0  0  0  0  0
   -2.8143   -1.6324   -0.6142 C   0  0  0  0  0  0  0  0  0  0  0  0
   -3.6423   -2.2344   -0.7906 H   0  0  0  0  0  0  0  0  0  0  0  0
   -1.9343   -1.5802   -1.1461 H   0  0  0  0  0  0  0  0  0  0  0  0
    2.2038    0.5549   -0.1273 Br  0  0  0  0  0 15  0  0  0  0  0  0
   -1.4898   -0.3866    1.0213 C   0  0  0  0  0  0  0  0  0  0  0  0
   -0.5979   -0.4191    0.4675 H   0  0  0  0  0  0  0  0  0  0  0  0
   -1.2132    0.0235    2.0708 H   0  0  0  0  0  0  0  0  0  0  0  0
   -2.5586    0.6029    0.3628 C   0  0  0  0  0  0  0  0  0  0  0  0
   -1.8066    1.4984    0.0468 H   0  0  0  0  0  0  0  0  0  0  0  0
   -3.4062    0.9665    0.9919 H   0  0  0  0  0  0  0  0  0  0  0  0
   -2.9163   -0.1305   -0.9142 O   0  0  0  0  0  0  0  0  0  0  0  0
  1  8  1  0  0  0  0
  1  3  1  0  0  0  0
  1  2  1  0  0  0  0
  4  1  1  0  0  0  0
  5  4  1  0  0  0  0
  6  4  1  0  0  0  0
  8 10  1  0  0  0  0
  9  8  1  0  0  0  0
 11 13  1  0  0  0  0
 11  8  1  0  0  0  0
 12 11  1  0  0  0  0
 14  4  1  0  0  0  0
 14 11  1  0  0  0  0
M  END
$$$$
Title Card Required
 OpenBabel06272217483D

 14 13  0  0  0  0  0  0  0  0999 V2000
   -2.2843   -1.6267    0.9135 C   0  0  0  0  0  0  0  0  0  0  0  0
   -1.6139   -2.2315    1.4749 H   0  0  0  0  0  0  0  0  0  0  0  0
   -3.1069   -1.1683    1.4315 H   0  0  0  0  0  0  0  0  0  0  0  0
   -2.8358   -1.6339   -0.6376 C   0  0  0  0  0  0  0  0  0  0  0  0
   -3.6532   -2.2099   -0.8241 H   0  0  0  0  0  0  0  0  0  0  0  0
   -1.8779   -1.6144   -1.1601 H   0  0  0  0  0  0  0  0  0  0  0  0
    2.2036    0.5557   -0.1256 Br  0  0  0  0  0 15  0  0  0  0  0  0
   -1.4751   -0.3815    1.0231 C   0  0  0  0  0  0  0  0  0  0  0  0
   -0.6057   -0.4568    0.3740 H   0  0  0  0  0  0  0  0  0  0  0  0
   -1.1964    0.0133    2.0318 H   0  0  0  0  0  0  0  0  0  0  0  0
   -2.5522    0.6055    0.3538 C   0  0  0  0  0  0  0  0  0  0  0  0
   -1.8007    1.5102    0.0374 H   0  0  0  0  0  0  0  0  0  0  0  0
   -3.4371    0.9698    0.9395 H   0  0  0  0  0  0  0  0  0  0  0  0
   -2.9201   -0.1366   -0.8916 O   0  0  0  0  0  0  0  0  0  0  0  0
  1  8  1  0  0  0  0
  1  3  1  0  0  0  0
  1  2  1  0  0  0  0
  4  1  1  0  0  0  0
  5  4  1  0  0  0  0
  6  4  1  0  0  0  0
  8 10  1  0  0  0  0
  9  8  1  0  0  0  0
 11 13  1  0  0  0  0
 11  8  1  0  0  0  0
 12 11  1  0  0  0  0
 14  4  1  0  0  0  0
 14 11  1  0  0  0  0
M  END
$$$$
Title Card Required
 OpenBabel06272217483D

 14 13  0  0  0  0  0  0  0  0999 V2000
   -2.2933   -1.6336    0.9148 C   0  0  0  0  0  0  0  0  0  0  0  0
   -1.5701   -2.2078    1.5159 H   0  0  0  0  0  0  0  0  0  0  0  0
   -3.0425   -1.1486    1.4949 H   0  0  0  0  0  0  0  0  0  0  0  0
   -2.8483   -1.6284   -0.6563 C   0  0  0  0  0  0  0  0  0  0  0  0
   -3.7053   -2.2103   -0.8727 H   0  0  0  0  0  0  0  0  0  0  0  0
   -1.8250   -1.6857   -1.1918 H   0  0  0  0  0  0  0  0  0  0  0  0
    2.2033    0.5564   -0.1239 Br  0  0  0  0  0 15  0  0  0  0  0  0
   -1.4631   -0.3727    1.0229 C   0  0  0  0  0  0  0  0  0  0  0  0
   -0.6007   -0.4835    0.2799 H   0  0  0  0  0  0  0  0  0  0  0  0
   -1.1814   -0.0088    1.9862 H   0  0  0  0  0  0  0  0  0  0  0  0
   -2.5402    0.6093    0.3411 C   0  0  0  0  0  0  0  0  0  0  0  0
   -1.8347    1.4957    0.0326 H   0  0  0  0  0  0  0  0  0  0  0  0
   -3.4585    0.9646    0.8845 H   0  0  0  0  0  0  0  0  0  0  0  0
   -2.9254   -0.1427   -0.8662 O   0  0  0  0  0  0  0  0  0  0  0  0
  1  8  1  0  0  0  0
  1  3  1  0  0  0  0
  1  2  1  0  0  0  0
  4  1  1  0  0  0  0
  5  4  1  0  0  0  0
  6  4  1  0  0  0  0
  8 10  1  0  0  0  0
  9  8  1  0  0  0  0
 11 13  1  0  0  0  0
 11  8  1  0  0  0  0
 12 11  1  0  0  0  0
 14  4  1  0  0  0  0
 14 11  1  0  0  0  0
M  END
$$$$
Title Card Required
 OpenBabel06272217483D

 14 13  0  0  0  0  0  0  0  0999 V2000
   -2.3020   -1.6389    0.9157 C   0  0  0  0  0  0  0  0  0  0  0  0
   -1.5440   -2.2161    1.5443 H   0  0  0  0  0  0  0  0  0  0  0  0
   -3.0103   -1.1534    1.5769 H   0  0  0  0  0  0  0  0  0  0  0  0
   -2.8518   -1.6178   -0.6707 C   0  0  0  0  0  0  0  0  0  0  0  0
   -3.7740   -2.2194   -0.9284 H   0  0  0  0  0  0  0  0  0  0  0  0
   -1.8041   -1.7827   -1.2243 H   0  0  0  0  0  0  0  0  0  0  0  0
    2.2031    0.5572   -0.1222 Br  0  0  0  0  0 15  0  0  0  0  0  0
   -1.4535   -0.3620    1.0169 C   0  0  0  0  0  0  0  0  0  0  0  0
   -0.6009   -0.4952    0.2066 H   0  0  0  0  0  0  0  0  0  0  0  0
   -1.1594   -0.0326    1.9577 H   0  0  0  0  0  0  0  0  0  0  0  0
   -2.5242    0.6133    0.3260 C   0  0  0  0  0  0  0  0  0  0  0  0
   -1.8971    1.4649    0.0280 H   0  0  0  0  0  0  0  0  0  0  0  0
   -3.4670    0.9522    0.8322 H   0  0  0  0  0  0  0  0  0  0  0  0
   -2.9318   -0.1488   -0.8397 O   0  0  0  0  0  0  0  0  0  0  0  0
  1  8  1  0  0  0  0
  1  2  1  0  0  0  0
  1  3  1  0  0  0  0
  4  1  1  0  0  0  0
  5  4  1  0  0  0  0
  6  4  1  0  0  0  0
  8 10  1  0  0  0  0
  9  8  1  0  0  0  0
 11 13  1  0  0  0  0
 11  8  1  0  0  0  0
 12 11  1  0  0  0  0
 14  4  1  0  0  0  0
 14 11  1  0  0  0  0
M  END
$$$$
Title Card Required
 OpenBabel06272217483D

 14 13  0  0  0  0  0  0  0  0999 V2000
   -2.3095   -1.6429    0.9175 C   0  0  0  0  0  0  0  0  0  0  0  0
   -1.5439   -2.2454    1.5495 H   0  0  0  0  0  0  0  0  0  0  0  0
   -3.0041   -1.1837    1.6666 H   0  0  0  0  0  0  0  0  0  0  0  0
   -2.8486   -1.6045   -0.6817 C   0  0  0  0  0  0  0  0  0  0  0  0
   -3.8281   -2.2161   -0.9810 H   0  0  0  0  0  0  0  0  0  0  0  0
   -1.8256   -1.8926   -1.2500 H   0  0  0  0  0  0  0  0  0  0  0  0
    2.2028    0.5579   -0.1206 Br  0  0  0  0  0 15  0  0  0  0  0  0
   -1.4460   -0.3508    1.0027 C   0  0  0  0  0  0  0  0  0  0  0  0
   -0.6142   -0.4910    0.1649 H   0  0  0  0  0  0  0  0  0  0  0  0
   -1.1240   -0.0514    1.9597 H   0  0  0  0  0  0  0  0  0  0  0  0
   -2.5060    0.6157    0.3098 C   0  0  0  0  0  0  0  0  0  0  0  0
   -1.9675    1.4403    0.0141 H   0  0  0  0  0  0  0  0  0  0  0  0
   -3.4627    0.9347    0.7875 H   0  0  0  0  0  0  0  0  0  0  0  0
   -2.9392   -0.1556   -0.8130 O   0  0  0  0  0  0  0  0  0  0  0  0
  1  8  1  0  0  0  0
  1  2  1  0  0  0  0
  1  3  1  0  0  0  0
  4  1  1  0  0  0  0
  5  4  1  0  0  0  0
  6  4  1  0  0  0  0
  8 10  1  0  0  0  0
  9  8  1  0  0  0  0
 11 13  1  0  0  0  0
 11  8  1  0  0  0  0
 12 11  1  0  0  0  0
 14  4  1  0  0  0  0
 14 11  1  0  0  0  0
M  END
$$$$
Title Card Required
 OpenBabel06272217483D

 14 13  0  0  0  0  0  0  0  0999 V2000
   -2.3155   -1.6450    0.9214 C   0  0  0  0  0  0  0  0  0  0  0  0
   -1.5707   -2.2878    1.5270 H   0  0  0  0  0  0  0  0  0  0  0  0
   -3.0126   -1.2395    1.7464 H   0  0  0  0  0  0  0  0  0  0  0  0
   -2.8414   -1.5906   -0.6894 C   0  0  0  0  0  0  0  0  0  0  0  0
   -3.8495   -2.1903   -1.0218 H   0  0  0  0  0  0  0  0  0  0  0  0
   -1.8864   -1.9998   -1.2653 H   0  0  0  0  0  0  0  0  0  0  0  0
    2.2025    0.5586   -0.1190 Br  0  0  0  0  0 15  0  0  0  0  0  0
   -1.4407   -0.3398    0.9818 C   0  0  0  0  0  0  0  0  0  0  0  0
   -0.6393   -0.4724    0.1567 H   0  0  0  0  0  0  0  0  0  0  0  0
   -1.0790   -0.0661    1.9820 H   0  0  0  0  0  0  0  0  0  0  0  0
   -2.4885    0.6143    0.2946 C   0  0  0  0  0  0  0  0  0  0  0  0
   -2.0203    1.4511   -0.0202 H   0  0  0  0  0  0  0  0  0  0  0  0
   -3.4476    0.9151    0.7570 H   0  0  0  0  0  0  0  0  0  0  0  0
   -2.9472   -0.1632   -0.7880 O   0  0  0  0  0  0  0  0  0  0  0  0
  1  8  1  0  0  0  0
  1  2  1  0  0  0  0
  1  3  1  0  0  0  0
  4  1  1  0  0  0  0
  5  4  1  0  0  0  0
  6  4  1  0  0  0  0
  8 10  1  0  0  0  0
  9  8  1  0  0  0  0
 11 13  1  0  0  0  0
 11  8  1  0  0  0  0
 12 11  1  0  0  0  0
 14  4  1  0  0  0  0
 14 11  1  0  0  0  0
M  END
$$$$
Title Card Required
 OpenBabel06272217483D

 14 13  0  0  0  0  0  0  0  0999 V2000
   -2.3202   -1.6453    0.9275 C   0  0  0  0  0  0  0  0  0  0  0  0
   -1.6161   -2.3368    1.4818 H   0  0  0  0  0  0  0  0  0  0  0  0
   -3.0257   -1.3129    1.8020 H   0  0  0  0  0  0  0  0  0  0  0  0
   -2.8328   -1.5782   -0.6937 C   0  0  0  0  0  0  0  0  0  0  0  0
   -3.8384   -2.1444   -1.0460 H   0  0  0  0  0  0  0  0  0  0  0  0
   -1.9702   -2.0897   -1.2711 H   0  0  0  0  0  0  0  0  0  0  0  0
    2.2021    0.5592   -0.1175 Br  0  0  0  0  0 15  0  0  0  0  0  0
   -1.4374   -0.3298    0.9587 C   0  0  0  0  0  0  0  0  0  0  0  0
   -0.6666   -0.4455    0.1720 H   0  0  0  0  0  0  0  0  0  0  0  0
   -1.0351   -0.0803    2.0003 H   0  0  0  0  0  0  0  0  0  0  0  0
   -2.4730    0.6090    0.2819 C   0  0  0  0  0  0  0  0  0  0  0  0
   -2.0471    1.5009   -0.0740 H   0  0  0  0  0  0  0  0  0  0  0  0
   -3.4268    0.8967    0.7449 H   0  0  0  0  0  0  0  0  0  0  0  0
   -2.9551   -0.1715   -0.7666 O   0  0  0  0  0  0  0  0  0  0  0  0
  1  8  1  0  0  0  0
  1  2  1  0  0  0  0
  1  3  1  0  0  0  0
  4  1  1  0  0  0  0
  5  4  1  0  0  0  0
  6  4  1  0  0  0  0
  8 10  1  0  0  0  0
  9  8  1  0  0  0  0
 11 13  1  0  0  0  0
 11  8  1  0  0  0  0
 12 11  1  0  0  0  0
 14  4  1  0  0  0  0
 14 11  1  0  0  0  0
M  END
$$$$
Title Card Required
 OpenBabel06272217483D

 14 13  0  0  0  0  0  0  0  0999 V2000
   -2.3240   -1.6439    0.9349 C   0  0  0  0  0  0  0  0  0  0  0  0
   -1.6707   -2.3911    1.4207 H   0  0  0  0  0  0  0  0  0  0  0  0
   -3.0386   -1.3969    1.8321 H   0  0  0  0  0  0  0  0  0  0  0  0
   -2.8240   -1.5674   -0.6948 C   0  0  0  0  0  0  0  0  0  0  0  0
   -3.8044   -2.0841   -1.0550 H   0  0  0  0  0  0  0  0  0  0  0  0
   -2.0616   -2.1606   -1.2718 H   0  0  0  0  0  0  0  0  0  0  0  0
    2.2018    0.5598   -0.1160 Br  0  0  0  0  0 15  0  0  0  0  0  0
   -1.4359   -0.3204    0.9364 C   0  0  0  0  0  0  0  0  0  0  0  0
   -0.6855   -0.4155    0.1953 H   0  0  0  0  0  0  0  0  0  0  0  0
   -0.9984   -0.0957    2.0005 H   0  0  0  0  0  0  0  0  0  0  0  0
   -2.4584    0.6024    0.2710 C   0  0  0  0  0  0  0  0  0  0  0  0
   -2.0603    1.5653   -0.1369 H   0  0  0  0  0  0  0  0  0  0  0  0
   -3.4031    0.8811    0.7508 H   0  0  0  0  0  0  0  0  0  0  0  0
   -2.9630   -0.1802   -0.7488 O   0  0  0  0  0  0  0  0  0  0  0  0
  1  8  1  0  0  0  0
  1  2  1  0  0  0  0
  1  3  1  0  0  0  0
  4  1  1  0  0  0  0
  5  4  1  0  0  0  0
  6  4  1  0  0  0  0
  8 10  1  0  0  0  0
  9  8  1  0  0  0  0
 11 13  1  0  0  0  0
 11  8  1  0  0  0  0
 12 11  1  0  0  0  0
 14  4  1  0  0  0  0
 14 11  1  0  0  0  0
M  END
$$$$
Title Card Required
 OpenBabel06272217483D

 14 13  0  0  0  0  0  0  0  0999 V2000
   -2.3277   -1.6411    0.9433 C   0  0  0  0  0  0  0  0  0  0  0  0
   -1.7287   -2.4540    1.3465 H   0  0  0  0  0  0  0  0  0  0  0  0
   -3.0503   -1.4889    1.8382 H   0  0  0  0  0  0  0  0  0  0  0  0
   -2.8156   -1.5577   -0.6924 C   0  0  0  0  0  0  0  0  0  0  0  0
   -3.7585   -2.0134   -1.0506 H   0  0  0  0  0  0  0  0  0  0  0  0
   -2.1505   -2.2160   -1.2721 H   0  0  0  0  0  0  0  0  0  0  0  0
    2.2015    0.5604   -0.1146 Br  0  0  0  0  0 15  0  0  0  0  0  0
   -1.4365   -0.3115    0.9160 C   0  0  0  0  0  0  0  0  0  0  0  0
   -0.6847   -0.3860    0.2126 H   0  0  0  0  0  0  0  0  0  0  0  0
   -0.9709   -0.1121    1.9771 H   0  0  0  0  0  0  0  0  0  0  0  0
   -2.4436    0.5966    0.2605 C   0  0  0  0  0  0  0  0  0  0  0  0
   -2.0707    1.6220   -0.2000 H   0  0  0  0  0  0  0  0  0  0  0  0
   -3.3762    0.8685    0.7742 H   0  0  0  0  0  0  0  0  0  0  0  0
   -2.9713   -0.1897   -0.7338 O   0  0  0  0  0  0  0  0  0  0  0  0
  1  2  1  0  0  0  0
  1  3  1  0  0  0  0
  4  1  1  0  0  0  0
  5  4  1  0  0  0  0
  6  4  1  0  0  0  0
  8  1  1  0  0  0  0
  8 10  1  0  0  0  0
  9  8  1  0  0  0  0
 11 13  1  0  0  0  0
 11  8  1  0  0  0  0
 12 11  1  0  0  0  0
 14  4  1  0  0  0  0
 14 11  1  0  0  0  0
M  END
$$$$
Title Card Required
 OpenBabel06272217483D

 14 13  0  0  0  0  0  0  0  0999 V2000
   -2.3313   -1.6369    0.9519 C   0  0  0  0  0  0  0  0  0  0  0  0
   -1.7850   -2.5278    1.2602 H   0  0  0  0  0  0  0  0  0  0  0  0
   -3.0614   -1.5853    1.8216 H   0  0  0  0  0  0  0  0  0  0  0  0
   -2.8074   -1.5488   -0.6854 C   0  0  0  0  0  0  0  0  0  0  0  0
   -3.7176   -1.9389   -1.0351 H   0  0  0  0  0  0  0  0  0  0  0  0
   -2.2257   -2.2581   -1.2770 H   0  0  0  0  0  0  0  0  0  0  0  0
    2.2011    0.5610   -0.1131 Br  0  0  0  0  0 15  0  0  0  0  0  0
   -1.4393   -0.3031    0.8984 C   0  0  0  0  0  0  0  0  0  0  0  0
   -0.6547   -0.3602    0.2135 H   0  0  0  0  0  0  0  0  0  0  0  0
   -0.9543   -0.1278    1.9282 H   0  0  0  0  0  0  0  0  0  0  0  0
   -2.4280    0.5932    0.2495 C   0  0  0  0  0  0  0  0  0  0  0  0
   -2.0832    1.6555   -0.2561 H   0  0  0  0  0  0  0  0  0  0  0  0
   -3.3438    0.8597    0.8145 H   0  0  0  0  0  0  0  0  0  0  0  0
   -2.9802   -0.1997   -0.7216 O   0  0  0  0  0  0  0  0  0  0  0  0
  1  2  1  0  0  0  0
  1  3  1  0  0  0  0
  4  1  1  0  0  0  0
  5  4  1  0  0  0  0
  6  4  1  0  0  0  0
  8  1  1  0  0  0  0
  8 10  1  0  0  0  0
  9  8  1  0  0  0  0
 11 13  1  0  0  0  0
 11  8  1  0  0  0  0
 12 11  1  0  0  0  0
 14  4  1  0  0  0  0
 14 11  1  0  0  0  0
M  END
$$$$
Title Card Required
 OpenBabel06272217483D

 14 13  0  0  0  0  0  0  0  0999 V2000
   -2.3347   -1.6322    0.9595 C   0  0  0  0  0  0  0  0  0  0  0  0
   -1.8358   -2.6084    1.1628 H   0  0  0  0  0  0  0  0  0  0  0  0
   -3.0747   -1.6798    1.7860 H   0  0  0  0  0  0  0  0  0  0  0  0
   -2.7988   -1.5405   -0.6724 C   0  0  0  0  0  0  0  0  0  0  0  0
   -3.7073   -1.8724   -1.0125 H   0  0  0  0  0  0  0  0  0  0  0  0
   -2.2759   -2.2866   -1.2901 H   0  0  0  0  0  0  0  0  0  0  0  0
    2.2007    0.5616   -0.1116 Br  0  0  0  0  0 15  0  0  0  0  0  0
   -1.4435   -0.2961    0.8838 C   0  0  0  0  0  0  0  0  0  0  0  0
   -0.5978   -0.3407    0.1983 H   0  0  0  0  0  0  0  0  0  0  0  0
   -0.9490   -0.1390    1.8589 H   0  0  0  0  0  0  0  0  0  0  0  0
   -2.4122    0.5935    0.2379 C   0  0  0  0  0  0  0  0  0  0  0  0
   -2.0986    1.6552   -0.2984 H   0  0  0  0  0  0  0  0  0  0  0  0
   -3.3025    0.8553    0.8686 H   0  0  0  0  0  0  0  0  0  0  0  0
   -2.9897   -0.2096   -0.7126 O   0  0  0  0  0  0  0  0  0  0  0  0
  1  2  1  0  0  0  0
  1  3  1  0  0  0  0
  4  1  1  0  0  0  0
  5  4  1  0  0  0  0
  6  4  1  0  0  0  0
  8  1  1  0  0  0  0
  8 10  1  0  0  0  0
  9  8  1  0  0  0  0
 11 13  1  0  0  0  0
 11  8  1  0  0  0  0
 12 11  1  0  0  0  0
 14  4  1  0  0  0  0
 14 11  1  0  0  0  0
M  END
$$$$
Title Card Required
 OpenBabel06272217483D

 14 13  0  0  0  0  0  0  0  0999 V2000
   -2.3369   -1.6286    0.9643 C   0  0  0  0  0  0  0  0  0  0  0  0
   -1.8798   -2.6827    1.0567 H   0  0  0  0  0  0  0  0  0  0  0  0
   -3.0948   -1.7645    1.7392 H   0  0  0  0  0  0  0  0  0  0  0  0
   -2.7895   -1.5335   -0.6529 C   0  0  0  0  0  0  0  0  0  0  0  0
   -3.7449   -1.8252   -0.9852 H   0  0  0  0  0  0  0  0  0  0  0  0
   -2.2952   -2.2977   -1.3106 H   0  0  0  0  0  0  0  0  0  0  0  0
    2.2002    0.5623   -0.1100 Br  0  0  0  0  0 15  0  0  0  0  0  0
   -1.4473   -0.2915    0.8705 C   0  0  0  0  0  0  0  0  0  0  0  0
   -0.5314   -0.3301    0.1782 H   0  0  0  0  0  0  0  0  0  0  0  0
   -0.9504   -0.1397    1.7862 H   0  0  0  0  0  0  0  0  0  0  0  0
   -2.3972    0.5981    0.2257 C   0  0  0  0  0  0  0  0  0  0  0  0
   -2.1152    1.6172   -0.3222 H   0  0  0  0  0  0  0  0  0  0  0  0
   -3.2499    0.8553    0.9299 H   0  0  0  0  0  0  0  0  0  0  0  0
   -2.9998   -0.2181   -0.7070 O   0  0  0  0  0  0  0  0  0  0  0  0
  1  2  1  0  0  0  0
  1  3  1  0  0  0  0
  4  1  1  0  0  0  0
  5  4  1  0  0  0  0
  6  4  1  0  0  0  0
  8  1  1  0  0  0  0
  8 10  1  0  0  0  0
  9  8  1  0  0  0  0
 11  8  1  0  0  0  0
 11 13  1  0  0  0  0
 12 11  1  0  0  0  0
 14  4  1  0  0  0  0
 14 11  1  0  0  0  0
M  END
$$$$
Title Card Required
 OpenBabel06272217483D

 14 13  0  0  0  0  0  0  0  0999 V2000
   -2.3372   -1.6279    0.9649 C   0  0  0  0  0  0  0  0  0  0  0  0
   -1.9168   -2.7344    0.9467 H   0  0  0  0  0  0  0  0  0  0  0  0
   -3.1258   -1.8340    1.6896 H   0  0  0  0  0  0  0  0  0  0  0  0
   -2.7812   -1.5294   -0.6276 C   0  0  0  0  0  0  0  0  0  0  0  0
   -3.8191   -1.8005   -0.9482 H   0  0  0  0  0  0  0  0  0  0  0  0
   -2.2858   -2.2845   -1.3334 H   0  0  0  0  0  0  0  0  0  0  0  0
    2.1997    0.5629   -0.1083 Br  0  0  0  0  0 15  0  0  0  0  0  0
   -1.4491   -0.2904    0.8563 C   0  0  0  0  0  0  0  0  0  0  0  0
   -0.4762   -0.3303    0.1652 H   0  0  0  0  0  0  0  0  0  0  0  0
   -0.9483   -0.1232    1.7361 H   0  0  0  0  0  0  0  0  0  0  0  0
   -2.3842    0.6067    0.2132 C   0  0  0  0  0  0  0  0  0  0  0  0
   -2.1287    1.5474   -0.3277 H   0  0  0  0  0  0  0  0  0  0  0  0
   -3.1849    0.8600    0.9903 H   0  0  0  0  0  0  0  0  0  0  0  0
   -3.0103   -0.2239   -0.7050 O   0  0  0  0  0  0  0  0  0  0  0  0
  1  3  1  0  0  0  0
  2  1  1  0  0  0  0
  4  1  1  0  0  0  0
  5  4  1  0  0  0  0
  6  4  1  0  0  0  0
  8  1  1  0  0  0  0
  8 10  1  0  0  0  0
  9  8  1  0  0  0  0
 11  8  1  0  0  0  0
 11 13  1  0  0  0  0
 12 11  1  0  0  0  0
 14  4  1  0  0  0  0
 14 11  1  0  0  0  0
M  END
$$$$
Title Card Required
 OpenBabel06272217483D

 14 13  0  0  0  0  0  0  0  0999 V2000
   -2.3351   -1.6314    0.9597 C   0  0  0  0  0  0  0  0  0  0  0  0
   -1.9451   -2.7511    0.8411 H   0  0  0  0  0  0  0  0  0  0  0  0
   -3.1665   -1.8838    1.6412 H   0  0  0  0  0  0  0  0  0  0  0  0
   -2.7766   -1.5296   -0.5977 C   0  0  0  0  0  0  0  0  0  0  0  0
   -3.8981   -1.7977   -0.8935 H   0  0  0  0  0  0  0  0  0  0  0  0
   -2.2548   -2.2399   -1.3503 H   0  0  0  0  0  0  0  0  0  0  0  0
    2.1991    0.5636   -0.1066 Br  0  0  0  0  0 15  0  0  0  0  0  0
   -1.4474   -0.2937    0.8395 C   0  0  0  0  0  0  0  0  0  0  0  0
   -0.4472   -0.3429    0.1664 H   0  0  0  0  0  0  0  0  0  0  0  0
   -0.9349   -0.0847    1.7274 H   0  0  0  0  0  0  0  0  0  0  0  0
   -2.3741    0.6174    0.2018 C   0  0  0  0  0  0  0  0  0  0  0  0
   -2.1305    1.4693   -0.3249 H   0  0  0  0  0  0  0  0  0  0  0  0
   -3.1097    0.8701    1.0413 H   0  0  0  0  0  0  0  0  0  0  0  0
   -3.0212   -0.2262   -0.7065 O   0  0  0  0  0  0  0  0  0  0  0  0
  1  3  1  0  0  0  0
  2  1  1  0  0  0  0
  4  1  1  0  0  0  0
  5  4  1  0  0  0  0
  6  4  1  0  0  0  0
  8  1  1  0  0  0  0
  8 10  1  0  0  0  0
  9  8  1  0  0  0  0
 11  8  1  0  0  0  0
 11 13  1  0  0  0  0
 12 11  1  0  0  0  0
 14  4  1  0  0  0  0
 14 11  1  0  0  0  0
M  END
$$$$
Title Card Required
 OpenBabel06272217483D

 14 13  0  0  0  0  0  0  0  0999 V2000
   -2.3311   -1.6396    0.9485 C   0  0  0  0  0  0  0  0  0  0  0  0
   -1.9603   -2.7293    0.7518 H   0  0  0  0  0  0  0  0  0  0  0  0
   -3.2083   -1.9089    1.5947 H   0  0  0  0  0  0  0  0  0  0  0  0
   -2.7783   -1.5342   -0.5655 C   0  0  0  0  0  0  0  0  0  0  0  0
   -3.9513   -1.8158   -0.8190 H   0  0  0  0  0  0  0  0  0  0  0  0
   -2.2121   -2.1633   -1.3538 H   0  0  0  0  0  0  0  0  0  0  0  0
    2.1985    0.5643   -0.1048 Br  0  0  0  0  0 15  0  0  0  0  0  0
   -1.4408   -0.3012    0.8214 C   0  0  0  0  0  0  0  0  0  0  0  0
   -0.4503   -0.3683    0.1825 H   0  0  0  0  0  0  0  0  0  0  0  0
   -0.9168   -0.0281    1.7508 H   0  0  0  0  0  0  0  0  0  0  0  0
   -2.3683    0.6261    0.1936 C   0  0  0  0  0  0  0  0  0  0  0  0
   -2.1076    1.4265   -0.3366 H   0  0  0  0  0  0  0  0  0  0  0  0
   -3.0313    0.8865    1.0759 H   0  0  0  0  0  0  0  0  0  0  0  0
   -3.0323   -0.2246   -0.7110 O   0  0  0  0  0  0  0  0  0  0  0  0
  1  3  1  0  0  0  0
  2  1  1  0  0  0  0
  4  1  1  0  0  0  0
  5  4  1  0  0  0  0
  6  4  1  0  0  0  0
  8  1  1  0  0  0  0
  8 10  1  0  0  0  0
  9  8  1  0  0  0  0
 11  8  1  0  0  0  0
 11 13  1  0  0  0  0
 12 11  1  0  0  0  0
 14  4  1  0  0  0  0
 14 11  1  0  0  0  0
M  END
$$$$
Title Card Required
 OpenBabel06272217483D

 14 13  0  0  0  0  0  0  0  0999 V2000
   -2.3263   -1.6509    0.9330 C   0  0  0  0  0  0  0  0  0  0  0  0
   -1.9585   -2.6830    0.6912 H   0  0  0  0  0  0  0  0  0  0  0  0
   -3.2389   -1.9087    1.5521 H   0  0  0  0  0  0  0  0  0  0  0  0
   -2.7861   -1.5416   -0.5351 C   0  0  0  0  0  0  0  0  0  0  0  0
   -3.9636   -1.8497   -0.7353 H   0  0  0  0  0  0  0  0  0  0  0  0
   -2.1695   -2.0694   -1.3418 H   0  0  0  0  0  0  0  0  0  0  0  0
    2.1979    0.5649   -0.1032 Br  0  0  0  0  0 15  0  0  0  0  0  0
   -1.4296   -0.3111    0.8062 C   0  0  0  0  0  0  0  0  0  0  0  0
   -0.4777   -0.4030    0.2062 H   0  0  0  0  0  0  0  0  0  0  0  0
   -0.9090    0.0309    1.7772 H   0  0  0  0  0  0  0  0  0  0  0  0
   -2.3667    0.6299    0.1898 C   0  0  0  0  0  0  0  0  0  0  0  0
   -2.0575    1.4402   -0.3735 H   0  0  0  0  0  0  0  0  0  0  0  0
   -2.9631    0.9090    1.0920 H   0  0  0  0  0  0  0  0  0  0  0  0
   -3.0428   -0.2196   -0.7175 O   0  0  0  0  0  0  0  0  0  0  0  0
  1  3  1  0  0  0  0
  2  1  1  0  0  0  0
  4  1  1  0  0  0  0
  5  4  1  0  0  0  0
  6  4  1  0  0  0  0
  8  1  1  0  0  0  0
  8 10  1  0  0  0  0
  9  8  1  0  0  0  0
 11  8  1  0  0  0  0
 11 13  1  0  0  0  0
 12 11  1  0  0  0  0
 14  4  1  0  0  0  0
 14 11  1  0  0  0  0
M  END
$$$$
Title Card Required
 OpenBabel06272217483D

 14 13  0  0  0  0  0  0  0  0999 V2000
   -2.3216   -1.6630    0.9154 C   0  0  0  0  0  0  0  0  0  0  0  0
   -1.9388   -2.6331    0.6569 H   0  0  0  0  0  0  0  0  0  0  0  0
   -3.2542   -1.8894    1.5141 H   0  0  0  0  0  0  0  0  0  0  0  0
   -2.7987   -1.5496   -0.5078 C   0  0  0  0  0  0  0  0  0  0  0  0
   -3.9402   -1.8933   -0.6507 H   0  0  0  0  0  0  0  0  0  0  0  0
   -2.1320   -1.9716   -1.3181 H   0  0  0  0  0  0  0  0  0  0  0  0
    2.1972    0.5655   -0.1016 Br  0  0  0  0  0 15  0  0  0  0  0  0
   -1.4156   -0.3219    0.7954 C   0  0  0  0  0  0  0  0  0  0  0  0
   -0.5120   -0.4440    0.2275 H   0  0  0  0  0  0  0  0  0  0  0  0
   -0.9167    0.0819    1.7892 H   0  0  0  0  0  0  0  0  0  0  0  0
   -2.3672    0.6308    0.1881 C   0  0  0  0  0  0  0  0  0  0  0  0
   -1.9938    1.4805   -0.4186 H   0  0  0  0  0  0  0  0  0  0  0  0
   -2.9105    0.9371    1.0953 H   0  0  0  0  0  0  0  0  0  0  0  0
   -3.0528   -0.2126   -0.7246 O   0  0  0  0  0  0  0  0  0  0  0  0
  1  3  1  0  0  0  0
  2  1  1  0  0  0  0
  4  1  1  0  0  0  0
  5  4  1  0  0  0  0
  6  4  1  0  0  0  0
  8  1  1  0  0  0  0
  8 10  1  0  0  0  0
  9  8  1  0  0  0  0
 11  8  1  0  0  0  0
 11 13  1  0  0  0  0
 12 11  1  0  0  0  0
 14  4  1  0  0  0  0
 14 11  1  0  0  0  0
M  END
$$$$
Title Card Required
 OpenBabel06272217483D

 14 13  0  0  0  0  0  0  0  0999 V2000
   -2.3170   -1.6746    0.8964 C   0  0  0  0  0  0  0  0  0  0  0  0
   -1.8983   -2.5956    0.6428 H   0  0  0  0  0  0  0  0  0  0  0  0
   -3.2549   -1.8560    1.4809 H   0  0  0  0  0  0  0  0  0  0  0  0
   -2.8152   -1.5573   -0.4827 C   0  0  0  0  0  0  0  0  0  0  0  0
   -3.8892   -1.9451   -0.5671 H   0  0  0  0  0  0  0  0  0  0  0  0
   -2.0996   -1.8749   -1.2857 H   0  0  0  0  0  0  0  0  0  0  0  0
    2.1966    0.5660   -0.1002 Br  0  0  0  0  0 15  0  0  0  0  0  0
   -1.4004   -0.3331    0.7891 C   0  0  0  0  0  0  0  0  0  0  0  0
   -0.5373   -0.4924    0.2376 H   0  0  0  0  0  0  0  0  0  0  0  0
   -0.9390    0.1219    1.7830 H   0  0  0  0  0  0  0  0  0  0  0  0
   -2.3678    0.6310    0.1860 C   0  0  0  0  0  0  0  0  0  0  0  0
   -1.9280    1.5183   -0.4549 H   0  0  0  0  0  0  0  0  0  0  0  0
   -2.8733    0.9717    1.0916 H   0  0  0  0  0  0  0  0  0  0  0  0
   -3.0630   -0.2038   -0.7322 O   0  0  0  0  0  0  0  0  0  0  0  0
  1  3  1  0  0  0  0
  2  1  1  0  0  0  0
  4  1  1  0  0  0  0
  5  4  1  0  0  0  0
  6  4  1  0  0  0  0
  8  1  1  0  0  0  0
  8 10  1  0  0  0  0
  9  8  1  0  0  0  0
 11  8  1  0  0  0  0
 11 13  1  0  0  0  0
 12 11  1  0  0  0  0
 14  4  1  0  0  0  0
 14 11  1  0  0  0  0
M  END
$$$$
Title Card Required
 OpenBabel06272217483D

 14 13  0  0  0  0  0  0  0  0999 V2000
   -2.3124   -1.6845    0.8766 C   0  0  0  0  0  0  0  0  0  0  0  0
   -1.8345   -2.5820    0.6457 H   0  0  0  0  0  0  0  0  0  0  0  0
   -3.2424   -1.8126    1.4552 H   0  0  0  0  0  0  0  0  0  0  0  0
   -2.8346   -1.5639   -0.4599 C   0  0  0  0  0  0  0  0  0  0  0  0
   -3.8218   -2.0056   -0.4888 H   0  0  0  0  0  0  0  0  0  0  0  0
   -2.0730   -1.7845   -1.2470 H   0  0  0  0  0  0  0  0  0  0  0  0
    2.1960    0.5665   -0.0987 Br  0  0  0  0  0 15  0  0  0  0  0  0
   -1.3856   -0.3445    0.7874 C   0  0  0  0  0  0  0  0  0  0  0  0
   -0.5406   -0.5491    0.2290 H   0  0  0  0  0  0  0  0  0  0  0  0
   -0.9731    0.1487    1.7586 H   0  0  0  0  0  0  0  0  0  0  0  0
   -2.3672    0.6315    0.1822 C   0  0  0  0  0  0  0  0  0  0  0  0
   -1.8685    1.5381   -0.4732 H   0  0  0  0  0  0  0  0  0  0  0  0
   -2.8521    1.0134    1.0836 H   0  0  0  0  0  0  0  0  0  0  0  0
   -3.0739   -0.1934   -0.7399 O   0  0  0  0  0  0  0  0  0  0  0  0
  1  3  1  0  0  0  0
  2  1  1  0  0  0  0
  4  1  1  0  0  0  0
  5  4  1  0  0  0  0
  6  4  1  0  0  0  0
  8  1  1  0  0  0  0
  8 10  1  0  0  0  0
  9  8  1  0  0  0  0
 11  8  1  0  0  0  0
 11 13  1  0  0  0  0
 12 11  1  0  0  0  0
 14  4  1  0  0  0  0
 14 11  1  0  0  0  0
M  END
$$$$
Title Card Required
 OpenBabel06272217483D

 14 13  0  0  0  0  0  0  0  0999 V2000
   -2.3069   -1.6920    0.8571 C   0  0  0  0  0  0  0  0  0  0  0  0
   -1.7513   -2.5919    0.6651 H   0  0  0  0  0  0  0  0  0  0  0  0
   -3.2198   -1.7639    1.4424 H   0  0  0  0  0  0  0  0  0  0  0  0
   -2.8547   -1.5683   -0.4403 C   0  0  0  0  0  0  0  0  0  0  0  0
   -3.7574   -2.0778   -0.4215 H   0  0  0  0  0  0  0  0  0  0  0  0
   -2.0541   -1.7070   -1.2050 H   0  0  0  0  0  0  0  0  0  0  0  0
    2.1953    0.5671   -0.0972 Br  0  0  0  0  0 15  0  0  0  0  0  0
   -1.3722   -0.3556    0.7899 C   0  0  0  0  0  0  0  0  0  0  0  0
   -0.5202   -0.6115    0.2019 H   0  0  0  0  0  0  0  0  0  0  0  0
   -1.0137    0.1609    1.7206 H   0  0  0  0  0  0  0  0  0  0  0  0
   -2.3645    0.6326    0.1761 C   0  0  0  0  0  0  0  0  0  0  0  0
   -1.8208    1.5334   -0.4703 H   0  0  0  0  0  0  0  0  0  0  0  0
   -2.8462    1.0605    1.0713 H   0  0  0  0  0  0  0  0  0  0  0  0
   -3.0857   -0.1818   -0.7471 O   0  0  0  0  0  0  0  0  0  0  0  0
  1  3  1  0  0  0  0
  2  1  1  0  0  0  0
  4  5  1  0  0  0  0
  4  1  1  0  0  0  0
  6  4  1  0  0  0  0
  8  1  1  0  0  0  0
  8 10  1  0  0  0  0
  9  8  1  0  0  0  0
 11  8  1  0  0  0  0
 11 13  1  0  0  0  0
 12 11  1  0  0  0  0
 14  4  1  0  0  0  0
 14 11  1  0  0  0  0
M  END
$$$$
Title Card Required
 OpenBabel06272217483D

 14 13  0  0  0  0  0  0  0  0999 V2000
   -2.2992   -1.6977    0.8385 C   0  0  0  0  0  0  0  0  0  0  0  0
   -1.6593   -2.6134    0.7021 H   0  0  0  0  0  0  0  0  0  0  0  0
   -3.1907   -1.7134    1.4477 H   0  0  0  0  0  0  0  0  0  0  0  0
   -2.8739   -1.5696   -0.4245 C   0  0  0  0  0  0  0  0  0  0  0  0
   -3.7148   -2.1677   -0.3691 H   0  0  0  0  0  0  0  0  0  0  0  0
   -2.0443   -1.6472   -1.1627 H   0  0  0  0  0  0  0  0  0  0  0  0
    2.1946    0.5676   -0.0957 Br  0  0  0  0  0 15  0  0  0  0  0  0
   -1.3600   -0.3670    0.7946 C   0  0  0  0  0  0  0  0  0  0  0  0
   -0.4874   -0.6742    0.1657 H   0  0  0  0  0  0  0  0  0  0  0  0
   -1.0543    0.1608    1.6788 H   0  0  0  0  0  0  0  0  0  0  0  0
   -2.3593    0.6342    0.1676 C   0  0  0  0  0  0  0  0  0  0  0  0
   -1.7873    1.5030   -0.4469 H   0  0  0  0  0  0  0  0  0  0  0  0
   -2.8530    1.1103    1.0524 H   0  0  0  0  0  0  0  0  0  0  0  0
   -3.0989   -0.1691   -0.7536 O   0  0  0  0  0  0  0  0  0  0  0  0
  1  3  1  0  0  0  0
  2  1  1  0  0  0  0
  4  5  1  0  0  0  0
  4  1  1  0  0  0  0
  6  4  1  0  0  0  0
  8  1  1  0  0  0  0
  8 10  1  0  0  0  0
  9  8  1  0  0  0  0
 11  8  1  0  0  0  0
 11 13  1  0  0  0  0
 12 11  1  0  0  0  0
 14  4  1  0  0  0  0
 14 11  1  0  0  0  0
M  END
$$$$
Title Card Required
 OpenBabel06272217483D

 14 13  0  0  0  0  0  0  0  0999 V2000
   -2.2874   -1.7021    0.8219 C   0  0  0  0  0  0  0  0  0  0  0  0
   -1.5723   -2.6309    0.7571 H   0  0  0  0  0  0  0  0  0  0  0  0
   -3.1562   -1.6637    1.4753 H   0  0  0  0  0  0  0  0  0  0  0  0
   -2.8916   -1.5675   -0.4134 C   0  0  0  0  0  0  0  0  0  0  0  0
   -3.6989   -2.2756   -0.3345 H   0  0  0  0  0  0  0  0  0  0  0  0
   -2.0447   -1.6095   -1.1234 H   0  0  0  0  0  0  0  0  0  0  0  0
    2.1939    0.5681   -0.0942 Br  0  0  0  0  0 15  0  0  0  0  0  0
   -1.3489   -0.3798    0.7991 C   0  0  0  0  0  0  0  0  0  0  0  0
   -0.4566   -0.7292    0.1325 H   0  0  0  0  0  0  0  0  0  0  0  0
   -1.0863    0.1541    1.6490 H   0  0  0  0  0  0  0  0  0  0  0  0
   -2.3515    0.6361    0.1572 C   0  0  0  0  0  0  0  0  0  0  0  0
   -1.7679    1.4488   -0.4066 H   0  0  0  0  0  0  0  0  0  0  0  0
   -2.8693    1.1591    1.0231 H   0  0  0  0  0  0  0  0  0  0  0  0
   -3.1138   -0.1553   -0.7592 O   0  0  0  0  0  0  0  0  0  0  0  0
  1  3  1  0  0  0  0
  2  1  1  0  0  0  0
  4  5  1  0  0  0  0
  4  1  1  0  0  0  0
  6  4  1  0  0  0  0
  8  1  1  0  0  0  0
  8 10  1  0  0  0  0
  9  8  1  0  0  0  0
 11  8  1  0  0  0  0
 11 13  1  0  0  0  0
 12 11  1  0  0  0  0
 14  4  1  0  0  0  0
 14 11  1  0  0  0  0
M  END
$$$$
Title Card Required
 OpenBabel06272217483D

 14 13  0  0  0  0  0  0  0  0999 V2000
   -2.2701   -1.7055    0.8089 C   0  0  0  0  0  0  0  0  0  0  0  0
   -1.5039   -2.6321    0.8281 H   0  0  0  0  0  0  0  0  0  0  0  0
   -3.1132   -1.6170    1.5257 H   0  0  0  0  0  0  0  0  0  0  0  0
   -2.9089   -1.5630   -0.4078 C   0  0  0  0  0  0  0  0  0  0  0  0
   -3.6985   -2.3887   -0.3213 H   0  0  0  0  0  0  0  0  0  0  0  0
   -2.0549   -1.5983   -1.0924 H   0  0  0  0  0  0  0  0  0  0  0  0
    2.1931    0.5687   -0.0925 Br  0  0  0  0  0 15  0  0  0  0  0  0
   -1.3387   -0.3952    0.8006 C   0  0  0  0  0  0  0  0  0  0  0  0
   -0.4391   -0.7679    0.1130 H   0  0  0  0  0  0  0  0  0  0  0  0
   -1.1016    0.1480    1.6490 H   0  0  0  0  0  0  0  0  0  0  0  0
   -2.3413    0.6377    0.1455 C   0  0  0  0  0  0  0  0  0  0  0  0
   -1.7575    1.3795   -0.3585 H   0  0  0  0  0  0  0  0  0  0  0  0
   -2.8912    1.2022    0.9795 H   0  0  0  0  0  0  0  0  0  0  0  0
   -3.1309   -0.1404   -0.7635 O   0  0  0  0  0  0  0  0  0  0  0  0
  1  2  1  0  0  0  0
  1  3  1  0  0  0  0
  4  5  1  0  0  0  0
  4  1  1  0  0  0  0
  6  4  1  0  0  0  0
  8  1  1  0  0  0  0
  8 10  1  0  0  0  0
  9  8  1  0  0  0  0
 11  8  1  0  0  0  0
 11 13  1  0  0  0  0
 12 11  1  0  0  0  0
 14  4  1  0  0  0  0
 14 11  1  0  0  0  0
M  END
$$$$
Title Card Required
 OpenBabel06272217483D

 14 13  0  0  0  0  0  0  0  0999 V2000
   -2.2469   -1.7078    0.8018 C   0  0  0  0  0  0  0  0  0  0  0  0
   -1.4660   -2.6094    0.9091 H   0  0  0  0  0  0  0  0  0  0  0  0
   -3.0549   -1.5771    1.5931 H   0  0  0  0  0  0  0  0  0  0  0  0
   -2.9273   -1.5578   -0.4081 C   0  0  0  0  0  0  0  0  0  0  0  0
   -3.6981   -2.4836   -0.3329 H   0  0  0  0  0  0  0  0  0  0  0  0
   -2.0734   -1.6177   -1.0776 H   0  0  0  0  0  0  0  0  0  0  0  0
    2.1922    0.5693   -0.0908 Br  0  0  0  0  0 15  0  0  0  0  0  0
   -1.3296   -0.4136    0.7980 C   0  0  0  0  0  0  0  0  0  0  0  0
   -0.4408   -0.7823    0.1144 H   0  0  0  0  0  0  0  0  0  0  0  0
   -1.0959    0.1426    1.6846 H   0  0  0  0  0  0  0  0  0  0  0  0
   -2.3301    0.6371    0.1341 C   0  0  0  0  0  0  0  0  0  0  0  0
   -1.7406    1.3178   -0.3222 H   0  0  0  0  0  0  0  0  0  0  0  0
   -2.9143    1.2341    0.9202 H   0  0  0  0  0  0  0  0  0  0  0  0
   -3.1503   -0.1248   -0.7663 O   0  0  0  0  0  0  0  0  0  0  0  0
  1  2  1  0  0  0  0
  1  3  1  0  0  0  0
  4  5  1  0  0  0  0
  4  1  1  0  0  0  0
  6  4  1  0  0  0  0
  8  1  1  0  0  0  0
  8 10  1  0  0  0  0
  9  8  1  0  0  0  0
 11  8  1  0  0  0  0
 11 13  1  0  0  0  0
 12 11  1  0  0  0  0
 14  4  1  0  0  0  0
 14 11  1  0  0  0  0
M  END
$$$$
Title Card Required
 OpenBabel06272217483D

 14 13  0  0  0  0  0  0  0  0999 V2000
   -2.2201   -1.7081    0.8024 C   0  0  0  0  0  0  0  0  0  0  0  0
   -1.4634   -2.5658    0.9878 H   0  0  0  0  0  0  0  0  0  0  0  0
   -2.9797   -1.5492    1.6626 H   0  0  0  0  0  0  0  0  0  0  0  0
   -2.9460   -1.5537   -0.4137 C   0  0  0  0  0  0  0  0  0  0  0  0
   -3.6885   -2.5368   -0.3672 H   0  0  0  0  0  0  0  0  0  0  0  0
   -2.0976   -1.6650   -1.0849 H   0  0  0  0  0  0  0  0  0  0  0  0
    2.1914    0.5699   -0.0891 Br  0  0  0  0  0 15  0  0  0  0  0  0
   -1.3222   -0.4327    0.7925 C   0  0  0  0  0  0  0  0  0  0  0  0
   -0.4590   -0.7694    0.1358 H   0  0  0  0  0  0  0  0  0  0  0  0
   -1.0735    0.1277    1.7371 H   0  0  0  0  0  0  0  0  0  0  0  0
   -2.3204    0.6322    0.1255 C   0  0  0  0  0  0  0  0  0  0  0  0
   -1.6968    1.2927   -0.3208 H   0  0  0  0  0  0  0  0  0  0  0  0
   -2.9336    1.2508    0.8515 H   0  0  0  0  0  0  0  0  0  0  0  0
   -3.1707   -0.1100   -0.7674 O   0  0  0  0  0  0  0  0  0  0  0  0
  1  2  1  0  0  0  0
  1  3  1  0  0  0  0
  4  5  1  0  0  0  0
  4  1  1  0  0  0  0
  6  4  1  0  0  0  0
  8  1  1  0  0  0  0
  8 10  1  0  0  0  0
  9  8  1  0  0  0  0
 11  8  1  0  0  0  0
 11 13  1  0  0  0  0
 12 11  1  0  0  0  0
 14  4  1  0  0  0  0
 14 11  1  0  0  0  0
M  END
$$$$
Title Card Required
 OpenBabel06272217483D

 14 13  0  0  0  0  0  0  0  0999 V2000
   -2.1937   -1.7061    0.8097 C   0  0  0  0  0  0  0  0  0  0  0  0
   -1.4854   -2.5164    1.0535 H   0  0  0  0  0  0  0  0  0  0  0  0
   -2.8947   -1.5345    1.7200 H   0  0  0  0  0  0  0  0  0  0  0  0
   -2.9632   -1.5517   -0.4226 C   0  0  0  0  0  0  0  0  0  0  0  0
   -3.6714   -2.5428   -0.4152 H   0  0  0  0  0  0  0  0  0  0  0  0
   -2.1254   -1.7286   -1.1105 H   0  0  0  0  0  0  0  0  0  0  0  0
    2.1905    0.5704   -0.0876 Br  0  0  0  0  0 15  0  0  0  0  0  0
   -1.3170   -0.4495    0.7869 C   0  0  0  0  0  0  0  0  0  0  0  0
   -0.4801   -0.7370    0.1652 H   0  0  0  0  0  0  0  0  0  0  0  0
   -1.0446    0.0957    1.7804 H   0  0  0  0  0  0  0  0  0  0  0  0
   -2.3126    0.6241    0.1195 C   0  0  0  0  0  0  0  0  0  0  0  0
   -1.6318    1.3012   -0.3513 H   0  0  0  0  0  0  0  0  0  0  0  0
   -2.9467    1.2543    0.7849 H   0  0  0  0  0  0  0  0  0  0  0  0
   -3.1902   -0.0974   -0.7669 O   0  0  0  0  0  0  0  0  0  0  0  0
  1  2  1  0  0  0  0
  1  3  1  0  0  0  0
  4  5  1  0  0  0  0
  4  1  1  0  0  0  0
  6  4  1  0  0  0  0
  8  1  1  0  0  0  0
  8 10  1  0  0  0  0
  9  8  1  0  0  0  0
 11 13  1  0  0  0  0
 11  8  1  0  0  0  0
 12 11  1  0  0  0  0
 14  4  1  0  0  0  0
 14 11  1  0  0  0  0
M  END
$$$$
Title Card Required
 OpenBabel06272217483D

 14 13  0  0  0  0  0  0  0  0999 V2000
   -2.1688   -1.7013    0.8219 C   0  0  0  0  0  0  0  0  0  0  0  0
   -1.5158   -2.4761    1.1075 H   0  0  0  0  0  0  0  0  0  0  0  0
   -2.8044   -1.5299    1.7637 H   0  0  0  0  0  0  0  0  0  0  0  0
   -2.9787   -1.5516   -0.4335 C   0  0  0  0  0  0  0  0  0  0  0  0
   -3.6522   -2.5099   -0.4710 H   0  0  0  0  0  0  0  0  0  0  0  0
   -2.1589   -1.8002   -1.1474 H   0  0  0  0  0  0  0  0  0  0  0  0
    2.1897    0.5709   -0.0861 Br  0  0  0  0  0 15  0  0  0  0  0  0
   -1.3142   -0.4632    0.7828 C   0  0  0  0  0  0  0  0  0  0  0  0
   -0.4895   -0.6939    0.1901 H   0  0  0  0  0  0  0  0  0  0  0  0
   -1.0145    0.0456    1.8048 H   0  0  0  0  0  0  0  0  0  0  0  0
   -2.3048    0.6146    0.1143 C   0  0  0  0  0  0  0  0  0  0  0  0
   -1.5652    1.3190   -0.3962 H   0  0  0  0  0  0  0  0  0  0  0  0
   -2.9549    1.2505    0.7254 H   0  0  0  0  0  0  0  0  0  0  0  0
   -3.2090   -0.0869   -0.7652 O   0  0  0  0  0  0  0  0  0  0  0  0
  1  2  1  0  0  0  0
  1  3  1  0  0  0  0
  4  1  1  0  0  0  0
  5  4  1  0  0  0  0
  6  4  1  0  0  0  0
  8  1  1  0  0  0  0
  8 10  1  0  0  0  0
  9  8  1  0  0  0  0
 11 13  1  0  0  0  0
 11  8  1  0  0  0  0
 12 11  1  0  0  0  0
 14  4  1  0  0  0  0
 14 11  1  0  0  0  0
M  END
$$$$
Title Card Required
 OpenBabel06272217483D

 14 13  0  0  0  0  0  0  0  0999 V2000
   -2.1461   -1.6929    0.8377 C   0  0  0  0  0  0  0  0  0  0  0  0
   -1.5399   -2.4599    1.1540 H   0  0  0  0  0  0  0  0  0  0  0  0
   -2.7126   -1.5322    1.7957 H   0  0  0  0  0  0  0  0  0  0  0  0
   -2.9919   -1.5530   -0.4462 C   0  0  0  0  0  0  0  0  0  0  0  0
   -3.6383   -2.4460   -0.5318 H   0  0  0  0  0  0  0  0  0  0  0  0
   -2.2007   -1.8745   -1.1903 H   0  0  0  0  0  0  0  0  0  0  0  0
    2.1889    0.5714   -0.0846 Br  0  0  0  0  0 15  0  0  0  0  0  0
   -1.3140   -0.4738    0.7812 C   0  0  0  0  0  0  0  0  0  0  0  0
   -0.4751   -0.6450    0.2007 H   0  0  0  0  0  0  0  0  0  0  0  0
   -0.9855   -0.0218    1.8081 H   0  0  0  0  0  0  0  0  0  0  0  0
   -2.2951    0.6048    0.1082 C   0  0  0  0  0  0  0  0  0  0  0  0
   -1.5115    1.3290   -0.4432 H   0  0  0  0  0  0  0  0  0  0  0  0
   -2.9600    1.2445    0.6763 H   0  0  0  0  0  0  0  0  0  0  0  0
   -3.2277   -0.0785   -0.7623 O   0  0  0  0  0  0  0  0  0  0  0  0
  1  2  1  0  0  0  0
  1  3  1  0  0  0  0
  4  1  1  0  0  0  0
  5  4  1  0  0  0  0
  6  4  1  0  0  0  0
  8  1  1  0  0  0  0
  8 10  1  0  0  0  0
  9  8  1  0  0  0  0
 11 13  1  0  0  0  0
 11  8  1  0  0  0  0
 12 11  1  0  0  0  0
 14  4  1  0  0  0  0
 14 11  1  0  0  0  0
M  END
$$$$
Title Card Required
 OpenBabel06272217483D

 14 13  0  0  0  0  0  0  0  0999 V2000
   -2.1261   -1.6811    0.8556 C   0  0  0  0  0  0  0  0  0  0  0  0
   -1.5479   -2.4786    1.1942 H   0  0  0  0  0  0  0  0  0  0  0  0
   -2.6276   -1.5380    1.8199 H   0  0  0  0  0  0  0  0  0  0  0  0
   -3.0017   -1.5550   -0.4604 C   0  0  0  0  0  0  0  0  0  0  0  0
   -3.6439   -2.3655   -0.5946 H   0  0  0  0  0  0  0  0  0  0  0  0
   -2.2510   -1.9447   -1.2337 H   0  0  0  0  0  0  0  0  0  0  0  0
    2.1880    0.5718   -0.0830 Br  0  0  0  0  0 15  0  0  0  0  0  0
   -1.3161   -0.4809    0.7819 C   0  0  0  0  0  0  0  0  0  0  0  0
   -0.4346   -0.5925    0.1940 H   0  0  0  0  0  0  0  0  0  0  0  0
   -0.9590   -0.1021    1.7916 H   0  0  0  0  0  0  0  0  0  0  0  0
   -2.2826    0.5953    0.1002 C   0  0  0  0  0  0  0  0  0  0  0  0
   -1.4802    1.3221   -0.4845 H   0  0  0  0  0  0  0  0  0  0  0  0
   -2.9622    1.2407    0.6412 H   0  0  0  0  0  0  0  0  0  0  0  0
   -3.2462   -0.0726   -0.7582 O   0  0  0  0  0  0  0  0  0  0  0  0
  1  2  1  0  0  0  0
  1  3  1  0  0  0  0
  4  1  1  0  0  0  0
  5  4  1  0  0  0  0
  6  4  1  0  0  0  0
  8  1  1  0  0  0  0
  8 10  1  0  0  0  0
  9  8  1  0  0  0  0
 11 13  1  0  0  0  0
 11  8  1  0  0  0  0
 12 11  1  0  0  0  0
 14  4  1  0  0  0  0
 14 11  1  0  0  0  0
M  END
$$$$
Title Card Required
 OpenBabel06272217483D

 14 13  0  0  0  0  0  0  0  0999 V2000
   -2.1090   -1.6672    0.8745 C   0  0  0  0  0  0  0  0  0  0  0  0
   -1.5407   -2.5287    1.2239 H   0  0  0  0  0  0  0  0  0  0  0  0
   -2.5595   -1.5440    1.8430 H   0  0  0  0  0  0  0  0  0  0  0  0
   -3.0067   -1.5558   -0.4756 C   0  0  0  0  0  0  0  0  0  0  0  0
   -3.6884   -2.2881   -0.6578 H   0  0  0  0  0  0  0  0  0  0  0  0
   -2.3073   -2.0043   -1.2731 H   0  0  0  0  0  0  0  0  0  0  0  0
    2.1871    0.5723   -0.0815 Br  0  0  0  0  0 15  0  0  0  0  0  0
   -1.3188   -0.4843    0.7836 C   0  0  0  0  0  0  0  0  0  0  0  0
   -0.3801   -0.5375    0.1766 H   0  0  0  0  0  0  0  0  0  0  0  0
   -0.9352   -0.1880    1.7625 H   0  0  0  0  0  0  0  0  0  0  0  0
   -2.2671    0.5867    0.0900 C   0  0  0  0  0  0  0  0  0  0  0  0
   -1.4758    1.2943   -0.5155 H   0  0  0  0  0  0  0  0  0  0  0  0
   -2.9600    1.2411    0.6221 H   0  0  0  0  0  0  0  0  0  0  0  0
   -3.2641   -0.0696   -0.7530 O   0  0  0  0  0  0  0  0  0  0  0  0
  1  2  1  0  0  0  0
  1  3  1  0  0  0  0
  4  1  1  0  0  0  0
  5  4  1  0  0  0  0
  6  4  1  0  0  0  0
  8  1  1  0  0  0  0
  8 10  1  0  0  0  0
  9  8  1  0  0  0  0
 11 13  1  0  0  0  0
 11  8  1  0  0  0  0
 12 11  1  0  0  0  0
 14  4  1  0  0  0  0
 14 11  1  0  0  0  0
M  END
$$$$
Title Card Required
 OpenBabel06272217483D

 14 13  0  0  0  0  0  0  0  0999 V2000
   -2.0942   -1.6542    0.8932 C   0  0  0  0  0  0  0  0  0  0  0  0
   -1.5278   -2.5927    1.2347 H   0  0  0  0  0  0  0  0  0  0  0  0
   -2.5173   -1.5473    1.8719 H   0  0  0  0  0  0  0  0  0  0  0  0
   -3.0064   -1.5546   -0.4913 C   0  0  0  0  0  0  0  0  0  0  0  0
   -3.7831   -2.2251   -0.7183 H   0  0  0  0  0  0  0  0  0  0  0  0
   -2.3649   -2.0480   -1.3052 H   0  0  0  0  0  0  0  0  0  0  0  0
    2.1861    0.5728   -0.0799 Br  0  0  0  0  0 15  0  0  0  0  0  0
   -1.3197   -0.4840    0.7840 C   0  0  0  0  0  0  0  0  0  0  0  0
   -0.3308   -0.4827    0.1592 H   0  0  0  0  0  0  0  0  0  0  0  0
   -0.9112   -0.2690    1.7352 H   0  0  0  0  0  0  0  0  0  0  0  0
   -2.2494    0.5793    0.0776 C   0  0  0  0  0  0  0  0  0  0  0  0
   -1.4986    1.2461   -0.5349 H   0  0  0  0  0  0  0  0  0  0  0  0
   -2.9493    1.2454    0.6182 H   0  0  0  0  0  0  0  0  0  0  0  0
   -3.2810   -0.0700   -0.7465 O   0  0  0  0  0  0  0  0  0  0  0  0
  1  2  1  0  0  0  0
  1  3  1  0  0  0  0
  4  1  1  0  0  0  0
  5  4  1  0  0  0  0
  6  4  1  0  0  0  0
  8  1  1  0  0  0  0
  8 10  1  0  0  0  0
  9  8  1  0  0  0  0
 11 13  1  0  0  0  0
 11  8  1  0  0  0  0
 12 11  1  0  0  0  0
 14  4  1  0  0  0  0
 14 11  1  0  0  0  0
M  END
$$$$
Title Card Required
 OpenBabel06272217483D

 14 13  0  0  0  0  0  0  0  0999 V2000
   -2.0816   -1.6450    0.9113 C   0  0  0  0  0  0  0  0  0  0  0  0
   -1.5188   -2.6505    1.2205 H   0  0  0  0  0  0  0  0  0  0  0  0
   -2.5044   -1.5475    1.9078 H   0  0  0  0  0  0  0  0  0  0  0  0
   -3.0027   -1.5522   -0.5073 C   0  0  0  0  0  0  0  0  0  0  0  0
   -3.9139   -2.1660   -0.7687 H   0  0  0  0  0  0  0  0  0  0  0  0
   -2.4188   -2.0731   -1.3286 H   0  0  0  0  0  0  0  0  0  0  0  0
    2.1851    0.5734   -0.0783 Br  0  0  0  0  0 15  0  0  0  0  0  0
   -1.3173   -0.4798    0.7810 C   0  0  0  0  0  0  0  0  0  0  0  0
   -0.3009   -0.4329    0.1494 H   0  0  0  0  0  0  0  0  0  0  0  0
   -0.8822   -0.3351    1.7252 H   0  0  0  0  0  0  0  0  0  0  0  0
   -2.2307    0.5734    0.0638 C   0  0  0  0  0  0  0  0  0  0  0  0
   -1.5425    1.1834   -0.5461 H   0  0  0  0  0  0  0  0  0  0  0  0
   -2.9252    1.2507    0.6265 H   0  0  0  0  0  0  0  0  0  0  0  0
   -3.2963   -0.0738   -0.7388 O   0  0  0  0  0  0  0  0  0  0  0  0
  1  2  1  0  0  0  0
  1  3  1  0  0  0  0
  4  1  1  0  0  0  0
  5  4  1  0  0  0  0
  6  4  1  0  0  0  0
  8  1  1  0  0  0  0
  8 10  1  0  0  0  0
  9  8  1  0  0  0  0
 11 13  1  0  0  0  0
 11  8  1  0  0  0  0
 12 11  1  0  0  0  0
 14  4  1  0  0  0  0
 14 11  1  0  0  0  0
M  END
$$$$
Title Card Required
 OpenBabel06272217483D

 14 13  0  0  0  0  0  0  0  0999 V2000
   -2.0715   -1.6413    0.9290 C   0  0  0  0  0  0  0  0  0  0  0  0
   -1.5193   -2.6876    1.1785 H   0  0  0  0  0  0  0  0  0  0  0  0
   -2.5190   -1.5455    1.9446 H   0  0  0  0  0  0  0  0  0  0  0  0
   -2.9989   -1.5498   -0.5242 C   0  0  0  0  0  0  0  0  0  0  0  0
   -4.0532   -2.0926   -0.7997 H   0  0  0  0  0  0  0  0  0  0  0  0
   -2.4654   -2.0799   -1.3449 H   0  0  0  0  0  0  0  0  0  0  0  0
    2.1840    0.5739   -0.0766 Br  0  0  0  0  0 15  0  0  0  0  0  0
   -1.3103   -0.4712    0.7736 C   0  0  0  0  0  0  0  0  0  0  0  0
   -0.2973   -0.3926    0.1507 H   0  0  0  0  0  0  0  0  0  0  0  0
   -0.8456   -0.3807    1.7390 H   0  0  0  0  0  0  0  0  0  0  0  0
   -2.2128    0.5683    0.0496 C   0  0  0  0  0  0  0  0  0  0  0  0
   -1.5928    1.1188   -0.5619 H   0  0  0  0  0  0  0  0  0  0  0  0
   -2.8827    1.2546    0.6435 H   0  0  0  0  0  0  0  0  0  0  0  0
   -3.3094   -0.0815   -0.7293 O   0  0  0  0  0  0  0  0  0  0  0  0
  1  2  1  0  0  0  0
  1  3  1  0  0  0  0
  4  1  1  0  0  0  0
  5  4  1  0  0  0  0
  6  4  1  0  0  0  0
  8  1  1  0  0  0  0
  8 10  1  0  0  0  0
  9  8  1  0  0  0  0
 11 13  1  0  0  0  0
 11  8  1  0  0  0  0
 12 11  1  0  0  0  0
 14  4  1  0  0  0  0
 14 11  1  0  0  0  0
M  END
$$$$
Title Card Required
 OpenBabel06272217483D

 14 13  0  0  0  0  0  0  0  0999 V2000
   -2.0645   -1.6446    0.9464 C   0  0  0  0  0  0  0  0  0  0  0  0
   -1.5327   -2.6928    1.1089 H   0  0  0  0  0  0  0  0  0  0  0  0
   -2.5566   -1.5431    1.9697 H   0  0  0  0  0  0  0  0  0  0  0  0
   -2.9987   -1.5475   -0.5416 C   0  0  0  0  0  0  0  0  0  0  0  0
   -4.1705   -1.9970   -0.8026 H   0  0  0  0  0  0  0  0  0  0  0  0
   -2.4998   -2.0708   -1.3583 H   0  0  0  0  0  0  0  0  0  0  0  0
    2.1828    0.5744   -0.0748 Br  0  0  0  0  0 15  0  0  0  0  0  0
   -1.2973   -0.4579    0.7624 C   0  0  0  0  0  0  0  0  0  0  0  0
   -0.3214   -0.3676    0.1626 H   0  0  0  0  0  0  0  0  0  0  0  0
   -0.8058   -0.4007    1.7682 H   0  0  0  0  0  0  0  0  0  0  0  0
   -2.1985    0.5627    0.0373 C   0  0  0  0  0  0  0  0  0  0  0  0
   -1.6239    1.0754   -0.6071 H   0  0  0  0  0  0  0  0  0  0  0  0
   -2.8181    1.2555    0.6655 H   0  0  0  0  0  0  0  0  0  0  0  0
   -3.3199   -0.0933   -0.7178 O   0  0  0  0  0  0  0  0  0  0  0  0
  1  2  1  0  0  0  0
  1  3  1  0  0  0  0
  4  1  1  0  0  0  0
  5  4  1  0  0  0  0
  6  4  1  0  0  0  0
  8  1  1  0  0  0  0
  8 10  1  0  0  0  0
  9  8  1  0  0  0  0
 11 13  1  0  0  0  0
 11  8  1  0  0  0  0
 12 11  1  0  0  0  0
 14  4  1  0  0  0  0
 14 11  1  0  0  0  0
M  END
$$$$
Title Card Required
 OpenBabel06272217483D

 14 13  0  0  0  0  0  0  0  0999 V2000
   -2.0616   -1.6539    0.9614 C   0  0  0  0  0  0  0  0  0  0  0  0
   -1.5559   -2.6660    1.0240 H   0  0  0  0  0  0  0  0  0  0  0  0
   -2.6054   -1.5428    1.9700 H   0  0  0  0  0  0  0  0  0  0  0  0
   -3.0045   -1.5449   -0.5572 C   0  0  0  0  0  0  0  0  0  0  0  0
   -4.2371   -1.8925   -0.7765 H   0  0  0  0  0  0  0  0  0  0  0  0
   -2.5157   -2.0524   -1.3748 H   0  0  0  0  0  0  0  0  0  0  0  0
    2.1816    0.5750   -0.0730 Br  0  0  0  0  0 15  0  0  0  0  0  0
   -1.2796   -0.4418    0.7505 C   0  0  0  0  0  0  0  0  0  0  0  0
   -0.3599   -0.3639    0.1771 H   0  0  0  0  0  0  0  0  0  0  0  0
   -0.7758   -0.3915    1.7921 H   0  0  0  0  0  0  0  0  0  0  0  0
   -2.1901    0.5563    0.0290 C   0  0  0  0  0  0  0  0  0  0  0  0
   -1.6201    1.0680   -0.6910 H   0  0  0  0  0  0  0  0  0  0  0  0
   -2.7394    1.2548    0.6874 H   0  0  0  0  0  0  0  0  0  0  0  0
   -3.3261   -0.1080   -0.7049 O   0  0  0  0  0  0  0  0  0  0  0  0
  1  2  1  0  0  0  0
  1  3  1  0  0  0  0
  4  1  1  0  0  0  0
  5  4  1  0  0  0  0
  6  4  1  0  0  0  0
  8  1  1  0  0  0  0
  8 10  1  0  0  0  0
  9  8  1  0  0  0  0
 11 13  1  0  0  0  0
 11  8  1  0  0  0  0
 12 11  1  0  0  0  0
 14  4  1  0  0  0  0
 14 11  1  0  0  0  0
M  END
$$$$
Title Card Required
 OpenBabel06272217483D

 14 13  0  0  0  0  0  0  0  0999 V2000
   -2.0628   -1.6661    0.9731 C   0  0  0  0  0  0  0  0  0  0  0  0
   -1.5801   -2.6249    0.9364 H   0  0  0  0  0  0  0  0  0  0  0  0
   -2.6554   -1.5460    1.9443 H   0  0  0  0  0  0  0  0  0  0  0  0
   -3.0167   -1.5413   -0.5696 C   0  0  0  0  0  0  0  0  0  0  0  0
   -4.2492   -1.7940   -0.7289 H   0  0  0  0  0  0  0  0  0  0  0  0
   -2.5142   -2.0310   -1.3978 H   0  0  0  0  0  0  0  0  0  0  0  0
    2.1804    0.5755   -0.0713 Br  0  0  0  0  0 15  0  0  0  0  0  0
   -1.2603   -0.4253    0.7408 C   0  0  0  0  0  0  0  0  0  0  0  0
   -0.3883   -0.3804    0.1802 H   0  0  0  0  0  0  0  0  0  0  0  0
   -0.7621   -0.3565    1.7978 H   0  0  0  0  0  0  0  0  0  0  0  0
   -2.1858    0.5504    0.0225 C   0  0  0  0  0  0  0  0  0  0  0  0
   -1.6004    1.0788   -0.7874 H   0  0  0  0  0  0  0  0  0  0  0  0
   -2.6573    1.2566    0.7077 H   0  0  0  0  0  0  0  0  0  0  0  0
   -3.3282   -0.1241   -0.6908 O   0  0  0  0  0  0  0  0  0  0  0  0
  1  3  1  0  0  0  0
  2  1  1  0  0  0  0
  4  1  1  0  0  0  0
  5  4  1  0  0  0  0
  6  4  1  0  0  0  0
  8  1  1  0  0  0  0
  8 10  1  0  0  0  0
  9  8  1  0  0  0  0
 11 13  1  0  0  0  0
 11  8  1  0  0  0  0
 12 11  1  0  0  0  0
 14  4  1  0  0  0  0
 14 11  1  0  0  0  0
M  END
$$$$
Title Card Required
 OpenBabel06272217483D

 14 13  0  0  0  0  0  0  0  0999 V2000
   -2.0680   -1.6781    0.9807 C   0  0  0  0  0  0  0  0  0  0  0  0
   -1.5946   -2.5931    0.8516 H   0  0  0  0  0  0  0  0  0  0  0  0
   -2.7023   -1.5540    1.8974 H   0  0  0  0  0  0  0  0  0  0  0  0
   -3.0346   -1.5366   -0.5787 C   0  0  0  0  0  0  0  0  0  0  0  0
   -4.2132   -1.7112   -0.6663 H   0  0  0  0  0  0  0  0  0  0  0  0
   -2.5007   -2.0071   -1.4253 H   0  0  0  0  0  0  0  0  0  0  0  0
    2.1793    0.5761   -0.0696 Br  0  0  0  0  0 15  0  0  0  0  0  0
   -1.2417   -0.4094    0.7345 C   0  0  0  0  0  0  0  0  0  0  0  0
   -0.3858   -0.4150    0.1599 H   0  0  0  0  0  0  0  0  0  0  0  0
   -0.7653   -0.2984    1.7824 H   0  0  0  0  0  0  0  0  0  0  0  0
   -2.1827    0.5463    0.0147 C   0  0  0  0  0  0  0  0  0  0  0  0
   -1.5860    1.0878   -0.8686 H   0  0  0  0  0  0  0  0  0  0  0  0
   -2.5780    1.2650    0.7271 H   0  0  0  0  0  0  0  0  0  0  0  0
   -3.3264   -0.1409   -0.6753 O   0  0  0  0  0  0  0  0  0  0  0  0
  1  3  1  0  0  0  0
  2  1  1  0  0  0  0
  4  1  1  0  0  0  0
  5  4  1  0  0  0  0
  6  4  1  0  0  0  0
  8  1  1  0  0  0  0
  8 10  1  0  0  0  0
  9  8  1  0  0  0  0
 11 13  1  0  0  0  0
 11  8  1  0  0  0  0
 12 11  1  0  0  0  0
 14  4  1  0  0  0  0
 14 11  1  0  0  0  0
M  END
$$$$
Title Card Required
 OpenBabel06272217483D

 14 13  0  0  0  0  0  0  0  0999 V2000
   -2.0766   -1.6872    0.9835 C   0  0  0  0  0  0  0  0  0  0  0  0
   -1.5919   -2.5887    0.7743 H   0  0  0  0  0  0  0  0  0  0  0  0
   -2.7448   -1.5676    1.8404 H   0  0  0  0  0  0  0  0  0  0  0  0
   -3.0558   -1.5312   -0.5847 C   0  0  0  0  0  0  0  0  0  0  0  0
   -4.1466   -1.6566   -0.5967 H   0  0  0  0  0  0  0  0  0  0  0  0
   -2.4833   -1.9799   -1.4496 H   0  0  0  0  0  0  0  0  0  0  0  0
    2.1781    0.5766   -0.0679 Br  0  0  0  0  0 15  0  0  0  0  0  0
   -1.2253   -0.3954    0.7315 C   0  0  0  0  0  0  0  0  0  0  0  0
   -0.3514   -0.4648    0.1176 H   0  0  0  0  0  0  0  0  0  0  0  0
   -0.7821   -0.2222    1.7495 H   0  0  0  0  0  0  0  0  0  0  0  0
   -2.1794    0.5443    0.0045 C   0  0  0  0  0  0  0  0  0  0  0  0
   -1.5863    1.0856   -0.9180 H   0  0  0  0  0  0  0  0  0  0  0  0
   -2.5083    1.2811    0.7439 H   0  0  0  0  0  0  0  0  0  0  0  0
   -3.3212   -0.1568   -0.6587 O   0  0  0  0  0  0  0  0  0  0  0  0
  1  3  1  0  0  0  0
  2  1  1  0  0  0  0
  4  1  1  0  0  0  0
  5  4  1  0  0  0  0
  6  4  1  0  0  0  0
  8  1  1  0  0  0  0
  8 10  1  0  0  0  0
  9  8  1  0  0  0  0
 11  8  1  0  0  0  0
 11 13  1  0  0  0  0
 12 11  1  0  0  0  0
 14  4  1  0  0  0  0
 14 11  1  0  0  0  0
M  END
$$$$
Title Card Required
 OpenBabel06272217483D

 14 13  0  0  0  0  0  0  0  0999 V2000
   -2.0877   -1.6935    0.9807 C   0  0  0  0  0  0  0  0  0  0  0  0
   -1.5753   -2.6084    0.7060 H   0  0  0  0  0  0  0  0  0  0  0  0
   -2.7871   -1.5872    1.7844 H   0  0  0  0  0  0  0  0  0  0  0  0
   -3.0770   -1.5251   -0.5877 C   0  0  0  0  0  0  0  0  0  0  0  0
   -4.0817   -1.6400   -0.5246 H   0  0  0  0  0  0  0  0  0  0  0  0
   -2.4697   -1.9480   -1.4643 H   0  0  0  0  0  0  0  0  0  0  0  0
    2.1769    0.5771   -0.0663 Br  0  0  0  0  0 15  0  0  0  0  0  0
   -1.2103   -0.3838    0.7297 C   0  0  0  0  0  0  0  0  0  0  0  0
   -0.3042   -0.5262    0.0677 H   0  0  0  0  0  0  0  0  0  0  0  0
   -0.8069   -0.1302    1.7070 H   0  0  0  0  0  0  0  0  0  0  0  0
   -2.1754    0.5445   -0.0088 C   0  0  0  0  0  0  0  0  0  0  0  0
   -1.6030    1.0707   -0.9333 H   0  0  0  0  0  0  0  0  0  0  0  0
   -2.4497    1.3026    0.7545 H   0  0  0  0  0  0  0  0  0  0  0  0
   -3.3129   -0.1709   -0.6407 O   0  0  0  0  0  0  0  0  0  0  0  0
  1  3  1  0  0  0  0
  2  1  1  0  0  0  0
  4  5  1  0  0  0  0
  4  1  1  0  0  0  0
  6  4  1  0  0  0  0
  8  1  1  0  0  0  0
  8 10  1  0  0  0  0
  9  8  1  0  0  0  0
 11  8  1  0  0  0  0
 11 13  1  0  0  0  0
 12 11  1  0  0  0  0
 14  4  1  0  0  0  0
 14 11  1  0  0  0  0
M  END
$$$$
Title Card Required
 OpenBabel06272217483D

 14 13  0  0  0  0  0  0  0  0999 V2000
   -2.0999   -1.6980    0.9708 C   0  0  0  0  0  0  0  0  0  0  0  0
   -1.5547   -2.6370    0.6513 H   0  0  0  0  0  0  0  0  0  0  0  0
   -2.8352   -1.6139    1.7381 H   0  0  0  0  0  0  0  0  0  0  0  0
   -3.0940   -1.5181   -0.5880 C   0  0  0  0  0  0  0  0  0  0  0  0
   -4.0621   -1.6721   -0.4488 H   0  0  0  0  0  0  0  0  0  0  0  0
   -2.4663   -1.9112   -1.4654 H   0  0  0  0  0  0  0  0  0  0  0  0
    2.1757    0.5776   -0.0646 Br  0  0  0  0  0 15  0  0  0  0  0  0
   -1.1956   -0.3751    0.7266 C   0  0  0  0  0  0  0  0  0  0  0  0
   -0.2645   -0.5947    0.0268 H   0  0  0  0  0  0  0  0  0  0  0  0
   -0.8331   -0.0211    1.6650 H   0  0  0  0  0  0  0  0  0  0  0  0
   -2.1700    0.5466   -0.0251 C   0  0  0  0  0  0  0  0  0  0  0  0
   -1.6347    1.0442   -0.9173 H   0  0  0  0  0  0  0  0  0  0  0  0
   -2.4023    1.3258    0.7540 H   0  0  0  0  0  0  0  0  0  0  0  0
   -3.3016   -0.1826   -0.6209 O   0  0  0  0  0  0  0  0  0  0  0  0
  1  3  1  0  0  0  0
  2  1  1  0  0  0  0
  4  5  1  0  0  0  0
  4  1  1  0  0  0  0
  6  4  1  0  0  0  0
  8  1  1  0  0  0  0
  8 10  1  0  0  0  0
  9  8  1  0  0  0  0
 11  8  1  0  0  0  0
 11 13  1  0  0  0  0
 12 11  1  0  0  0  0
 14  4  1  0  0  0  0
 14 11  1  0  0  0  0
M  END
$$$$
Title Card Required
 OpenBabel06272217483D

 14 13  0  0  0  0  0  0  0  0999 V2000
   -2.1110   -1.7016    0.9543 C   0  0  0  0  0  0  0  0  0  0  0  0
   -1.5416   -2.6568    0.6200 H   0  0  0  0  0  0  0  0  0  0  0  0
   -2.8862   -1.6460    1.7077 H   0  0  0  0  0  0  0  0  0  0  0  0
   -3.1038   -1.5110   -0.5856 C   0  0  0  0  0  0  0  0  0  0  0  0
   -4.1022   -1.7516   -0.3737 H   0  0  0  0  0  0  0  0  0  0  0  0
   -2.4764   -1.8753   -1.4535 H   0  0  0  0  0  0  0  0  0  0  0  0
    2.1745    0.5781   -0.0630 Br  0  0  0  0  0 15  0  0  0  0  0  0
   -1.1820   -0.3707    0.7206 C   0  0  0  0  0  0  0  0  0  0  0  0
   -0.2474   -0.6578    0.0096 H   0  0  0  0  0  0  0  0  0  0  0  0
   -0.8534    0.0945    1.6336 H   0  0  0  0  0  0  0  0  0  0  0  0
   -2.1638    0.5501   -0.0422 C   0  0  0  0  0  0  0  0  0  0  0  0
   -1.6718    1.0142   -0.8833 H   0  0  0  0  0  0  0  0  0  0  0  0
   -2.3704    1.3447    0.7390 H   0  0  0  0  0  0  0  0  0  0  0  0
   -3.2887   -0.1903   -0.6007 O   0  0  0  0  0  0  0  0  0  0  0  0
  1  3  1  0  0  0  0
  2  1  1  0  0  0  0
  4  5  1  0  0  0  0
  4  1  1  0  0  0  0
  6  4  1  0  0  0  0
  8  1  1  0  0  0  0
  8 10  1  0  0  0  0
  9  8  1  0  0  0  0
 11  8  1  0  0  0  0
 11 13  1  0  0  0  0
 12 11  1  0  0  0  0
 14  4  1  0  0  0  0
 14 11  1  0  0  0  0
M  END
$$$$
Title Card Required
 OpenBabel06272217483D

 14 13  0  0  0  0  0  0  0  0999 V2000
   -2.1209   -1.7045    0.9323 C   0  0  0  0  0  0  0  0  0  0  0  0
   -1.5405   -2.6611    0.6127 H   0  0  0  0  0  0  0  0  0  0  0  0
   -2.9334   -1.6827    1.6878 H   0  0  0  0  0  0  0  0  0  0  0  0
   -3.1093   -1.5045   -0.5798 C   0  0  0  0  0  0  0  0  0  0  0  0
   -4.1628   -1.8609   -0.3056 H   0  0  0  0  0  0  0  0  0  0  0  0
   -2.4974   -1.8448   -1.4347 H   0  0  0  0  0  0  0  0  0  0  0  0
    2.1733    0.5786   -0.0615 Br  0  0  0  0  0 15  0  0  0  0  0  0
   -1.1696   -0.3699    0.7120 C   0  0  0  0  0  0  0  0  0  0  0  0
   -0.2545   -0.7095    0.0183 H   0  0  0  0  0  0  0  0  0  0  0  0
   -0.8668    0.2081    1.6091 H   0  0  0  0  0  0  0  0  0  0  0  0
   -2.1575    0.5535   -0.0581 C   0  0  0  0  0  0  0  0  0  0  0  0
   -1.7007    0.9923   -0.8551 H   0  0  0  0  0  0  0  0  0  0  0  0
   -2.3537    1.3570    0.7101 H   0  0  0  0  0  0  0  0  0  0  0  0
   -3.2753   -0.1942   -0.5804 O   0  0  0  0  0  0  0  0  0  0  0  0
  1  3  1  0  0  0  0
  2  1  1  0  0  0  0
  4  5  1  0  0  0  0
  4  1  1  0  0  0  0
  6  4  1  0  0  0  0
  8  1  1  0  0  0  0
  8 10  1  0  0  0  0
  9  8  1  0  0  0  0
 11 13  1  0  0  0  0
 11  8  1  0  0  0  0
 12 11  1  0  0  0  0
 14  4  1  0  0  0  0
 14 11  1  0  0  0  0
M  END
$$$$
Title Card Required
 OpenBabel06272217483D

 14 13  0  0  0  0  0  0  0  0999 V2000
   -2.1304   -1.7071    0.9049 C   0  0  0  0  0  0  0  0  0  0  0  0
   -1.5516   -2.6498    0.6276 H   0  0  0  0  0  0  0  0  0  0  0  0
   -2.9697   -1.7245    1.6699 H   0  0  0  0  0  0  0  0  0  0  0  0
   -3.1139   -1.4997   -0.5692 C   0  0  0  0  0  0  0  0  0  0  0  0
   -4.2071   -1.9838   -0.2510 H   0  0  0  0  0  0  0  0  0  0  0  0
   -2.5257   -1.8233   -1.4167 H   0  0  0  0  0  0  0  0  0  0  0  0
    2.1721    0.5791   -0.0599 Br  0  0  0  0  0 15  0  0  0  0  0  0
   -1.1581   -0.3720    0.7015 C   0  0  0  0  0  0  0  0  0  0  0  0
   -0.2826   -0.7489    0.0509 H   0  0  0  0  0  0  0  0  0  0  0  0
   -0.8755    0.3128    1.5807 H   0  0  0  0  0  0  0  0  0  0  0  0
   -2.1515    0.5556   -0.0715 C   0  0  0  0  0  0  0  0  0  0  0  0
   -1.7084    0.9903   -0.8581 H   0  0  0  0  0  0  0  0  0  0  0  0
   -2.3518    1.3635    0.6686 H   0  0  0  0  0  0  0  0  0  0  0  0
   -3.2617   -0.1945   -0.5595 O   0  0  0  0  0  0  0  0  0  0  0  0
  1  3  1  0  0  0  0
  2  1  1  0  0  0  0
  4 14  1  0  0  0  0
  4  5  1  0  0  0  0
  4  1  1  0  0  0  0
  6  4  1  0  0  0  0
  8  1  1  0  0  0  0
  8 10  1  0  0  0  0
  9  8  1  0  0  0  0
 11 13  1  0  0  0  0
 11  8  1  0  0  0  0
 12 11  1  0  0  0  0
 14 11  1  0  0  0  0
M  END
$$$$
Title Card Required
 OpenBabel06272217483D

 14 13  0  0  0  0  0  0  0  0999 V2000
   -2.1404   -1.7089    0.8736 C   0  0  0  0  0  0  0  0  0  0  0  0
   -1.5714   -2.6280    0.6613 H   0  0  0  0  0  0  0  0  0  0  0  0
   -2.9864   -1.7686    1.6484 H   0  0  0  0  0  0  0  0  0  0  0  0
   -3.1188   -1.4975   -0.5527 C   0  0  0  0  0  0  0  0  0  0  0  0
   -4.2149   -2.1006   -0.2172 H   0  0  0  0  0  0  0  0  0  0  0  0
   -2.5564   -1.8154   -1.4082 H   0  0  0  0  0  0  0  0  0  0  0  0
    2.1709    0.5796   -0.0583 Br  0  0  0  0  0 15  0  0  0  0  0  0
   -1.1483   -0.3759    0.6905 C   0  0  0  0  0  0  0  0  0  0  0  0
   -0.3222   -0.7751    0.1002 H   0  0  0  0  0  0  0  0  0  0  0  0
   -0.8804    0.3940    1.5408 H   0  0  0  0  0  0  0  0  0  0  0  0
   -2.1461    0.5555   -0.0817 C   0  0  0  0  0  0  0  0  0  0  0  0
   -1.6895    1.0121   -0.9029 H   0  0  0  0  0  0  0  0  0  0  0  0
   -2.3654    1.3662    0.6194 H   0  0  0  0  0  0  0  0  0  0  0  0
   -3.2488   -0.1912   -0.5384 O   0  0  0  0  0  0  0  0  0  0  0  0
  1  3  1  0  0  0  0
  2  1  1  0  0  0  0
  4 14  1  0  0  0  0
  4  5  1  0  0  0  0
  4  1  1  0  0  0  0
  6  4  1  0  0  0  0
  8  1  1  0  0  0  0
  8 10  1  0  0  0  0
  9  8  1  0  0  0  0
 11 13  1  0  0  0  0
 11  8  1  0  0  0  0
 12 11  1  0  0  0  0
 14 11  1  0  0  0  0
M  END
$$$$
Title Card Required
 OpenBabel06272217483D

 14 13  0  0  0  0  0  0  0  0999 V2000
   -2.1515   -1.7091    0.8399 C   0  0  0  0  0  0  0  0  0  0  0  0
   -1.5921   -2.6067    0.7071 H   0  0  0  0  0  0  0  0  0  0  0  0
   -2.9802   -1.8111    1.6214 H   0  0  0  0  0  0  0  0  0  0  0  0
   -3.1239   -1.4988   -0.5302 C   0  0  0  0  0  0  0  0  0  0  0  0
   -4.1822   -2.1963   -0.2060 H   0  0  0  0  0  0  0  0  0  0  0  0
   -2.5871   -1.8224   -1.4131 H   0  0  0  0  0  0  0  0  0  0  0  0
    2.1697    0.5801   -0.0568 Br  0  0  0  0  0 15  0  0  0  0  0  0
   -1.1420   -0.3799    0.6806 C   0  0  0  0  0  0  0  0  0  0  0  0
   -0.3546   -0.7929    0.1511 H   0  0  0  0  0  0  0  0  0  0  0  0
   -0.8815    0.4413    1.4881 H   0  0  0  0  0  0  0  0  0  0  0  0
   -2.1398    0.5538   -0.0906 C   0  0  0  0  0  0  0  0  0  0  0  0
   -1.6549    1.0457   -0.9707 H   0  0  0  0  0  0  0  0  0  0  0  0
   -2.3937    1.3694    0.5696 H   0  0  0  0  0  0  0  0  0  0  0  0
   -3.2376   -0.1847   -0.5176 O   0  0  0  0  0  0  0  0  0  0  0  0
  1  3  1  0  0  0  0
  2  1  1  0  0  0  0
  4 14  1  0  0  0  0
  4  5  1  0  0  0  0
  4  1  1  0  0  0  0
  6  4  1  0  0  0  0
  8  1  1  0  0  0  0
  8 10  1  0  0  0  0
  9  8  1  0  0  0  0
 11 13  1  0  0  0  0
 11  8  1  0  0  0  0
 12 11  1  0  0  0  0
 14 11  1  0  0  0  0
M  END
$$$$
Title Card Required
 OpenBabel06272217483D

 14 13  0  0  0  0  0  0  0  0999 V2000
   -2.1642   -1.7071    0.8049 C   0  0  0  0  0  0  0  0  0  0  0  0
   -1.6045   -2.5983    0.7583 H   0  0  0  0  0  0  0  0  0  0  0  0
   -2.9531   -1.8481    1.5909 H   0  0  0  0  0  0  0  0  0  0  0  0
   -3.1285   -1.5039   -0.5029 C   0  0  0  0  0  0  0  0  0  0  0  0
   -4.1132   -2.2618   -0.2157 H   0  0  0  0  0  0  0  0  0  0  0  0
   -2.6193   -1.8413   -1.4276 H   0  0  0  0  0  0  0  0  0  0  0  0
    2.1685    0.5807   -0.0552 Br  0  0  0  0  0 15  0  0  0  0  0  0
   -1.1411   -0.3829    0.6730 C   0  0  0  0  0  0  0  0  0  0  0  0
   -0.3580   -0.8113    0.1869 H   0  0  0  0  0  0  0  0  0  0  0  0
   -0.8779    0.4513    1.4268 H   0  0  0  0  0  0  0  0  0  0  0  0
   -2.1312    0.5514   -0.1008 C   0  0  0  0  0  0  0  0  0  0  0  0
   -1.6196    1.0754   -1.0352 H   0  0  0  0  0  0  0  0  0  0  0  0
   -2.4338    1.3772    0.5245 H   0  0  0  0  0  0  0  0  0  0  0  0
   -3.2287   -0.1756   -0.4973 O   0  0  0  0  0  0  0  0  0  0  0  0
  1  3  1  0  0  0  0
  2  1  1  0  0  0  0
  4 14  1  0  0  0  0
  4  5  1  0  0  0  0
  4  1  1  0  0  0  0
  6  4  1  0  0  0  0
  8  1  1  0  0  0  0
  8 10  1  0  0  0  0
  9  8  1  0  0  0  0
 11 13  1  0  0  0  0
 11  8  1  0  0  0  0
 12 11  1  0  0  0  0
 14 11  1  0  0  0  0
M  END
$$$$
Title Card Required
 OpenBabel06272217483D

 14 13  0  0  0  0  0  0  0  0999 V2000
   -2.1776   -1.7029    0.7704 C   0  0  0  0  0  0  0  0  0  0  0  0
   -1.6042   -2.6070    0.8079 H   0  0  0  0  0  0  0  0  0  0  0  0
   -2.9138   -1.8757    1.5634 H   0  0  0  0  0  0  0  0  0  0  0  0
   -3.1315   -1.5127   -0.4734 C   0  0  0  0  0  0  0  0  0  0  0  0
   -4.0200   -2.2916   -0.2409 H   0  0  0  0  0  0  0  0  0  0  0  0
   -2.6546   -1.8657   -1.4422 H   0  0  0  0  0  0  0  0  0  0  0  0
    2.1673    0.5812   -0.0537 Br  0  0  0  0  0 15  0  0  0  0  0  0
   -1.1459   -0.3844    0.6675 C   0  0  0  0  0  0  0  0  0  0  0  0
   -0.3257   -0.8337    0.2001 H   0  0  0  0  0  0  0  0  0  0  0  0
   -0.8689    0.4289    1.3682 H   0  0  0  0  0  0  0  0  0  0  0  0
   -2.1199    0.5492   -0.1133 C   0  0  0  0  0  0  0  0  0  0  0  0
   -1.5937    1.0909   -1.0788 H   0  0  0  0  0  0  0  0  0  0  0  0
   -2.4790    1.3894    0.4867 H   0  0  0  0  0  0  0  0  0  0  0  0
   -3.2229   -0.1651   -0.4785 O   0  0  0  0  0  0  0  0  0  0  0  0
  1  2  1  0  0  0  0
  1  3  1  0  0  0  0
  4  5  1  0  0  0  0
  4  1  1  0  0  0  0
  6  4  1  0  0  0  0
  8  1  1  0  0  0  0
  8 10  1  0  0  0  0
  9  8  1  0  0  0  0
 11 13  1  0  0  0  0
 11  8  1  0  0  0  0
 12 11  1  0  0  0  0
 14  4  1  0  0  0  0
 14 11  1  0  0  0  0
M  END
$$$$
Title Card Required
 OpenBabel06272217483D

 14 13  0  0  0  0  0  0  0  0999 V2000
   -2.1904   -1.6975    0.7368 C   0  0  0  0  0  0  0  0  0  0  0  0
   -1.5951   -2.6253    0.8517 H   0  0  0  0  0  0  0  0  0  0  0  0
   -2.8724   -1.8924    1.5459 H   0  0  0  0  0  0  0  0  0  0  0  0
   -3.1318   -1.5244   -0.4437 C   0  0  0  0  0  0  0  0  0  0  0  0
   -3.9184   -2.2902   -0.2744 H   0  0  0  0  0  0  0  0  0  0  0  0
   -2.6936   -1.8897   -1.4488 H   0  0  0  0  0  0  0  0  0  0  0  0
    2.1661    0.5817   -0.0522 Br  0  0  0  0  0 15  0  0  0  0  0  0
   -1.1552   -0.3859    0.6625 C   0  0  0  0  0  0  0  0  0  0  0  0
   -0.2726   -0.8536    0.1982 H   0  0  0  0  0  0  0  0  0  0  0  0
   -0.8529    0.3865    1.3249 H   0  0  0  0  0  0  0  0  0  0  0  0
   -2.1061    0.5480   -0.1282 C   0  0  0  0  0  0  0  0  0  0  0  0
   -1.5797    1.0894   -1.0974 H   0  0  0  0  0  0  0  0  0  0  0  0
   -2.5224    1.4027    0.4542 H   0  0  0  0  0  0  0  0  0  0  0  0
   -3.2202   -0.1541   -0.4610 O   0  0  0  0  0  0  0  0  0  0  0  0
  1  2  1  0  0  0  0
  1  3  1  0  0  0  0
  4  5  1  0  0  0  0
  4  1  1  0  0  0  0
  6  4  1  0  0  0  0
  8  1  1  0  0  0  0
  8 10  1  0  0  0  0
  9  8  1  0  0  0  0
 11 13  1  0  0  0  0
 11  8  1  0  0  0  0
 12 11  1  0  0  0  0
 14  4  1  0  0  0  0
 14 11  1  0  0  0  0
M  END
$$$$
Title Card Required
 OpenBabel06272217483D

 14 13  0  0  0  0  0  0  0  0999 V2000
   -2.2013   -1.6916    0.7031 C   0  0  0  0  0  0  0  0  0  0  0  0
   -1.5836   -2.6423    0.8866 H   0  0  0  0  0  0  0  0  0  0  0  0
   -2.8343   -1.8976    1.5442 H   0  0  0  0  0  0  0  0  0  0  0  0
   -3.1280   -1.5381   -0.4140 C   0  0  0  0  0  0  0  0  0  0  0  0
   -3.8279   -2.2708   -0.3092 H   0  0  0  0  0  0  0  0  0  0  0  0
   -2.7363   -1.9102   -1.4426 H   0  0  0  0  0  0  0  0  0  0  0  0
    2.1648    0.5822   -0.0507 Br  0  0  0  0  0 15  0  0  0  0  0  0
   -1.1679   -0.3896    0.6554 C   0  0  0  0  0  0  0  0  0  0  0  0
   -0.2168   -0.8619    0.1901 H   0  0  0  0  0  0  0  0  0  0  0  0
   -0.8252    0.3354    1.3105 H   0  0  0  0  0  0  0  0  0  0  0  0
   -2.0893    0.5485   -0.1463 C   0  0  0  0  0  0  0  0  0  0  0  0
   -1.5774    1.0695   -1.0917 H   0  0  0  0  0  0  0  0  0  0  0  0
   -2.5585    1.4135    0.4224 H   0  0  0  0  0  0  0  0  0  0  0  0
   -3.2210   -0.1426   -0.4439 O   0  0  0  0  0  0  0  0  0  0  0  0
  1  2  1  0  0  0  0
  1  3  1  0  0  0  0
  4  5  1  0  0  0  0
  4  1  1  0  0  0  0
  6  4  1  0  0  0  0
  8  1  1  0  0  0  0
  8 10  1  0  0  0  0
  9  8  1  0  0  0  0
 11 13  1  0  0  0  0
 11  8  1  0  0  0  0
 12 11  1  0  0  0  0
 14  4  1  0  0  0  0
 14 11  1  0  0  0  0
M  END
$$$$
Title Card Required
 OpenBabel06272217483D

 14 13  0  0  0  0  0  0  0  0999 V2000
   -2.2080   -1.6865    0.6700 C   0  0  0  0  0  0  0  0  0  0  0  0
   -1.5765   -2.6464    0.9049 H   0  0  0  0  0  0  0  0  0  0  0  0
   -2.8028   -1.8869    1.5631 H   0  0  0  0  0  0  0  0  0  0  0  0
   -3.1170   -1.5513   -0.3858 C   0  0  0  0  0  0  0  0  0  0  0  0
   -3.7910   -2.2624   -0.3356 H   0  0  0  0  0  0  0  0  0  0  0  0
   -2.7794   -1.9236   -1.4200 H   0  0  0  0  0  0  0  0  0  0  0  0
    2.1634    0.5828   -0.0490 Br  0  0  0  0  0 15  0  0  0  0  0  0
   -1.1836   -0.3977    0.6435 C   0  0  0  0  0  0  0  0  0  0  0  0
   -0.1764   -0.8481    0.1819 H   0  0  0  0  0  0  0  0  0  0  0  0
   -0.7801    0.2824    1.3427 H   0  0  0  0  0  0  0  0  0  0  0  0
   -2.0689    0.5515   -0.1683 C   0  0  0  0  0  0  0  0  0  0  0  0
   -1.5860    1.0287   -1.0629 H   0  0  0  0  0  0  0  0  0  0  0  0
   -2.5780    1.4180    0.3878 H   0  0  0  0  0  0  0  0  0  0  0  0
   -3.2265   -0.1310   -0.4265 O   0  0  0  0  0  0  0  0  0  0  0  0
  1  2  1  0  0  0  0
  1  3  1  0  0  0  0
  4  5  1  0  0  0  0
  4  1  1  0  0  0  0
  6  4  1  0  0  0  0
  8  1  1  0  0  0  0
  8 10  1  0  0  0  0
  9  8  1  0  0  0  0
 11 13  1  0  0  0  0
 11  8  1  0  0  0  0
 12 11  1  0  0  0  0
 14  4  1  0  0  0  0
 14 11  1  0  0  0  0
M  END
$$$$
Title Card Required
 OpenBabel06272217483D

 14 13  0  0  0  0  0  0  0  0999 V2000
   -2.2070   -1.6837    0.6452 C   0  0  0  0  0  0  0  0  0  0  0  0
   -1.5796   -2.6305    0.8965 H   0  0  0  0  0  0  0  0  0  0  0  0
   -2.7793   -1.8570    1.5949 H   0  0  0  0  0  0  0  0  0  0  0  0
   -3.0997   -1.5597   -0.3650 C   0  0  0  0  0  0  0  0  0  0  0  0
   -3.8437   -2.2878   -0.3427 H   0  0  0  0  0  0  0  0  0  0  0  0
   -2.8099   -1.9262   -1.3866 H   0  0  0  0  0  0  0  0  0  0  0  0
    2.1620    0.5835   -0.0472 Br  0  0  0  0  0 15  0  0  0  0  0  0
   -1.1991   -0.4097    0.6278 C   0  0  0  0  0  0  0  0  0  0  0  0
   -0.1699   -0.8092    0.1765 H   0  0  0  0  0  0  0  0  0  0  0  0
   -0.7288    0.2257    1.4151 H   0  0  0  0  0  0  0  0  0  0  0  0
   -2.0485    0.5565   -0.1900 C   0  0  0  0  0  0  0  0  0  0  0  0
   -1.5954    0.9781   -1.0318 H   0  0  0  0  0  0  0  0  0  0  0  0
   -2.5695    1.4143    0.3534 H   0  0  0  0  0  0  0  0  0  0  0  0
   -3.2366   -0.1212   -0.4110 O   0  0  0  0  0  0  0  0  0  0  0  0
  1  2  1  0  0  0  0
  1  3  1  0  0  0  0
  4  5  1  0  0  0  0
  4  1  1  0  0  0  0
  6  4  1  0  0  0  0
  8  1  1  0  0  0  0
  8 10  1  0  0  0  0
  9  8  1  0  0  0  0
 11 13  1  0  0  0  0
 11  8  1  0  0  0  0
 12 11  1  0  0  0  0
 14  4  1  0  0  0  0
 14 11  1  0  0  0  0
M  END
$$$$
Title Card Required
 OpenBabel06272217483D

 14 13  0  0  0  0  0  0  0  0999 V2000
   -2.1975   -1.6836    0.6326 C   0  0  0  0  0  0  0  0  0  0  0  0
   -1.5910   -2.6001    0.8624 H   0  0  0  0  0  0  0  0  0  0  0  0
   -2.7584   -1.8092    1.6249 H   0  0  0  0  0  0  0  0  0  0  0  0
   -3.0829   -1.5646   -0.3537 C   0  0  0  0  0  0  0  0  0  0  0  0
   -3.9469   -2.3166   -0.3314 H   0  0  0  0  0  0  0  0  0  0  0  0
   -2.8214   -1.9199   -1.3539 H   0  0  0  0  0  0  0  0  0  0  0  0
    2.1606    0.5841   -0.0456 Br  0  0  0  0  0 15  0  0  0  0  0  0
   -1.2118   -0.4230    0.6111 C   0  0  0  0  0  0  0  0  0  0  0  0
   -0.1961   -0.7531    0.1721 H   0  0  0  0  0  0  0  0  0  0  0  0
   -0.6900    0.1533    1.4976 H   0  0  0  0  0  0  0  0  0  0  0  0
   -2.0309    0.5616   -0.2077 C   0  0  0  0  0  0  0  0  0  0  0  0
   -1.5886    0.9355   -1.0328 H   0  0  0  0  0  0  0  0  0  0  0  0
   -2.5334    1.4072    0.3222 H   0  0  0  0  0  0  0  0  0  0  0  0
   -3.2501   -0.1138   -0.3980 O   0  0  0  0  0  0  0  0  0  0  0  0
  1  2  1  0  0  0  0
  1  3  1  0  0  0  0
  4  5  1  0  0  0  0
  4  1  1  0  0  0  0
  6  4  1  0  0  0  0
  8  1  1  0  0  0  0
  8 10  1  0  0  0  0
  9  8  1  0  0  0  0
 11 13  1  0  0  0  0
 11  8  1  0  0  0  0
 12 11  1  0  0  0  0
 14  4  1  0  0  0  0
 14 11  1  0  0  0  0
M  END
$$$$
Title Card Required
 OpenBabel06272217483D

 14 13  0  0  0  0  0  0  0  0999 V2000
   -2.1808   -1.6852    0.6323 C   0  0  0  0  0  0  0  0  0  0  0  0
   -1.6032   -2.5682    0.8099 H   0  0  0  0  0  0  0  0  0  0  0  0
   -2.7354   -1.7481    1.6434 H   0  0  0  0  0  0  0  0  0  0  0  0
   -3.0720   -1.5681   -0.3510 C   0  0  0  0  0  0  0  0  0  0  0  0
   -4.0510   -2.3181   -0.3061 H   0  0  0  0  0  0  0  0  0  0  0  0
   -2.8138   -1.9096   -1.3318 H   0  0  0  0  0  0  0  0  0  0  0  0
    2.1593    0.5846   -0.0440 Br  0  0  0  0  0 15  0  0  0  0  0  0
   -1.2211   -0.4359    0.5958 C   0  0  0  0  0  0  0  0  0  0  0  0
   -0.2421   -0.6900    0.1639 H   0  0  0  0  0  0  0  0  0  0  0  0
   -0.6754    0.0612    1.5672 H   0  0  0  0  0  0  0  0  0  0  0  0
   -2.0173    0.5655   -0.2199 C   0  0  0  0  0  0  0  0  0  0  0  0
   -1.5580    0.9079   -1.0818 H   0  0  0  0  0  0  0  0  0  0  0  0
   -2.4764    1.4043    0.2973 H   0  0  0  0  0  0  0  0  0  0  0  0
   -3.2656   -0.1087   -0.3870 O   0  0  0  0  0  0  0  0  0  0  0  0
  1  2  1  0  0  0  0
  1  3  1  0  0  0  0
  4  5  1  0  0  0  0
  4  1  1  0  0  0  0
  6  4  1  0  0  0  0
  8  1  1  0  0  0  0
  8 10  1  0  0  0  0
  9  8  1  0  0  0  0
 11 13  1  0  0  0  0
 11  8  1  0  0  0  0
 12 11  1  0  0  0  0
 14  4  1  0  0  0  0
 14 11  1  0  0  0  0
M  END
$$$$
Title Card Required
 OpenBabel06272217483D

 14 13  0  0  0  0  0  0  0  0999 V2000
   -2.1595   -1.6869    0.6421 C   0  0  0  0  0  0  0  0  0  0  0  0
   -1.6055   -2.5521    0.7488 H   0  0  0  0  0  0  0  0  0  0  0  0
   -2.7089   -1.6804    1.6480 H   0  0  0  0  0  0  0  0  0  0  0  0
   -3.0688   -1.5706   -0.3547 C   0  0  0  0  0  0  0  0  0  0  0  0
   -4.1303   -2.2860   -0.2726 H   0  0  0  0  0  0  0  0  0  0  0  0
   -2.7904   -1.9000   -1.3263 H   0  0  0  0  0  0  0  0  0  0  0  0
    2.1580    0.5852   -0.0425 Br  0  0  0  0  0 15  0  0  0  0  0  0
   -1.2276   -0.4475    0.5832 C   0  0  0  0  0  0  0  0  0  0  0  0
   -0.2881   -0.6306    0.1459 H   0  0  0  0  0  0  0  0  0  0  0  0
   -0.6878   -0.0443    1.6130 H   0  0  0  0  0  0  0  0  0  0  0  0
   -2.0071    0.5677   -0.2285 C   0  0  0  0  0  0  0  0  0  0  0  0
   -1.5145    0.8878   -1.1595 H   0  0  0  0  0  0  0  0  0  0  0  0
   -2.4079    1.4130    0.2815 H   0  0  0  0  0  0  0  0  0  0  0  0
   -3.2820   -0.1055   -0.3780 O   0  0  0  0  0  0  0  0  0  0  0  0
  1  2  1  0  0  0  0
  1  3  1  0  0  0  0
  4  5  1  0  0  0  0
  4  1  1  0  0  0  0
  6  4  1  0  0  0  0
  8  1  1  0  0  0  0
  8 10  1  0  0  0  0
  9  8  1  0  0  0  0
 11 13  1  0  0  0  0
 11  8  1  0  0  0  0
 12 11  1  0  0  0  0
 14  4  1  0  0  0  0
 14 11  1  0  0  0  0
M  END
$$$$
Title Card Required
 OpenBabel06272217483D

 14 13  0  0  0  0  0  0  0  0999 V2000
   -2.1362   -1.6875    0.6587 C   0  0  0  0  0  0  0  0  0  0  0  0
   -1.5910   -2.5629    0.6863 H   0  0  0  0  0  0  0  0  0  0  0  0
   -2.6789   -1.6125    1.6413 H   0  0  0  0  0  0  0  0  0  0  0  0
   -3.0723   -1.5718   -0.3623 C   0  0  0  0  0  0  0  0  0  0  0  0
   -4.1773   -2.2258   -0.2362 H   0  0  0  0  0  0  0  0  0  0  0  0
   -2.7565   -1.8933   -1.3370 H   0  0  0  0  0  0  0  0  0  0  0  0
    2.1568    0.5857   -0.0410 Br  0  0  0  0  0 15  0  0  0  0  0  0
   -1.2325   -0.4577    0.5740 C   0  0  0  0  0  0  0  0  0  0  0  0
   -0.3159   -0.5817    0.1131 H   0  0  0  0  0  0  0  0  0  0  0  0
   -0.7236   -0.1553    1.6333 H   0  0  0  0  0  0  0  0  0  0  0  0
   -1.9990    0.5685   -0.2360 C   0  0  0  0  0  0  0  0  0  0  0  0
   -1.4733    0.8652   -1.2362 H   0  0  0  0  0  0  0  0  0  0  0  0
   -2.3350    1.4373    0.2754 H   0  0  0  0  0  0  0  0  0  0  0  0
   -3.2983   -0.1037   -0.3705 O   0  0  0  0  0  0  0  0  0  0  0  0
  1  2  1  0  0  0  0
  1  3  1  0  0  0  0
  4  5  1  0  0  0  0
  4  1  1  0  0  0  0
  6  4  1  0  0  0  0
  8  1  1  0  0  0  0
  8 10  1  0  0  0  0
  9  8  1  0  0  0  0
 11 13  1  0  0  0  0
 11  8  1  0  0  0  0
 12 11  1  0  0  0  0
 14  4  1  0  0  0  0
 14 11  1  0  0  0  0
M  END
$$$$
Title Card Required
 OpenBabel06272217483D

 14 13  0  0  0  0  0  0  0  0999 V2000
   -2.1129   -1.6869    0.6786 C   0  0  0  0  0  0  0  0  0  0  0  0
   -1.5623   -2.5970    0.6269 H   0  0  0  0  0  0  0  0  0  0  0  0
   -2.6475   -1.5501    1.6293 H   0  0  0  0  0  0  0  0  0  0  0  0
   -3.0808   -1.5718   -0.3718 C   0  0  0  0  0  0  0  0  0  0  0  0
   -4.1916   -2.1459   -0.2015 H   0  0  0  0  0  0  0  0  0  0  0  0
   -2.7180   -1.8890   -1.3574 H   0  0  0  0  0  0  0  0  0  0  0  0
    2.1556    0.5862   -0.0397 Br  0  0  0  0  0 15  0  0  0  0  0  0
   -1.2363   -0.4664    0.5679 C   0  0  0  0  0  0  0  0  0  0  0  0
   -0.3192   -0.5456    0.0658 H   0  0  0  0  0  0  0  0  0  0  0  0
   -0.7765   -0.2628    1.6308 H   0  0  0  0  0  0  0  0  0  0  0  0
   -1.9925    0.5681   -0.2438 C   0  0  0  0  0  0  0  0  0  0  0  0
   -1.4438    0.8364   -1.2939 H   0  0  0  0  0  0  0  0  0  0  0  0
   -2.2622    1.4743    0.2761 H   0  0  0  0  0  0  0  0  0  0  0  0
   -3.3139   -0.1029   -0.3643 O   0  0  0  0  0  0  0  0  0  0  0  0
  1  3  1  0  0  0  0
  2  1  1  0  0  0  0
  4 14  1  0  0  0  0
  4  5  1  0  0  0  0
  4  1  1  0  0  0  0
  6  4  1  0  0  0  0
  8  1  1  0  0  0  0
  8 10  1  0  0  0  0
  9  8  1  0  0  0  0
 11 13  1  0  0  0  0
 11  8  1  0  0  0  0
 12 11  1  0  0  0  0
 14 11  1  0  0  0  0
M  END
$$$$
Title Card Required
 OpenBabel06272217483D

 14 13  0  0  0  0  0  0  0  0999 V2000
   -2.0898   -1.6863    0.6995 C   0  0  0  0  0  0  0  0  0  0  0  0
   -1.5280   -2.6409    0.5729 H   0  0  0  0  0  0  0  0  0  0  0  0
   -2.6170   -1.4954    1.6192 H   0  0  0  0  0  0  0  0  0  0  0  0
   -3.0927   -1.5705   -0.3822 C   0  0  0  0  0  0  0  0  0  0  0  0
   -4.1769   -2.0525   -0.1710 H   0  0  0  0  0  0  0  0  0  0  0  0
   -2.6797   -1.8854   -1.3795 H   0  0  0  0  0  0  0  0  0  0  0  0
    2.1545    0.5867   -0.0383 Br  0  0  0  0  0 15  0  0  0  0  0  0
   -1.2385   -0.4742    0.5639 C   0  0  0  0  0  0  0  0  0  0  0  0
   -0.3049   -0.5207    0.0098 H   0  0  0  0  0  0  0  0  0  0  0  0
   -0.8397   -0.3619    1.6117 H   0  0  0  0  0  0  0  0  0  0  0  0
   -1.9873    0.5669   -0.2523 C   0  0  0  0  0  0  0  0  0  0  0  0
   -1.4284    0.8008   -1.3277 H   0  0  0  0  0  0  0  0  0  0  0  0
   -2.1893    1.5171    0.2785 H   0  0  0  0  0  0  0  0  0  0  0  0
   -3.3287   -0.1026   -0.3591 O   0  0  0  0  0  0  0  0  0  0  0  0
  1  3  1  0  0  0  0
  2  1  1  0  0  0  0
  4 14  1  0  0  0  0
  4  5  1  0  0  0  0
  4  1  1  0  0  0  0
  6  4  1  0  0  0  0
  8  1  1  0  0  0  0
  8 10  1  0  0  0  0
  9  8  1  0  0  0  0
 11 13  1  0  0  0  0
 11  8  1  0  0  0  0
 12 11  1  0  0  0  0
 14 11  1  0  0  0  0
M  END
$$$$
Title Card Required
 OpenBabel06272217483D

 14 13  0  0  0  0  0  0  0  0999 V2000
   -2.0661   -1.6868    0.7201 C   0  0  0  0  0  0  0  0  0  0  0  0
   -1.4951   -2.6822    0.5260 H   0  0  0  0  0  0  0  0  0  0  0  0
   -2.5893   -1.4487    1.6173 H   0  0  0  0  0  0  0  0  0  0  0  0
   -3.1070   -1.5675   -0.3932 C   0  0  0  0  0  0  0  0  0  0  0  0
   -4.1385   -1.9490   -0.1454 H   0  0  0  0  0  0  0  0  0  0  0  0
   -2.6449   -1.8807   -1.3976 H   0  0  0  0  0  0  0  0  0  0  0  0
    2.1533    0.5872   -0.0370 Br  0  0  0  0  0 15  0  0  0  0  0  0
   -1.2385   -0.4816    0.5601 C   0  0  0  0  0  0  0  0  0  0  0  0
   -0.2836   -0.5055   -0.0481 H   0  0  0  0  0  0  0  0  0  0  0  0
   -0.9083   -0.4498    1.5845 H   0  0  0  0  0  0  0  0  0  0  0  0
   -1.9834    0.5653   -0.2615 C   0  0  0  0  0  0  0  0  0  0  0  0
   -1.4280    0.7576   -1.3367 H   0  0  0  0  0  0  0  0  0  0  0  0
   -2.1138    1.5592    0.2773 H   0  0  0  0  0  0  0  0  0  0  0  0
   -3.3430   -0.1025   -0.3545 O   0  0  0  0  0  0  0  0  0  0  0  0
  1  3  1  0  0  0  0
  2  1  1  0  0  0  0
  4 14  1  0  0  0  0
  4  5  1  0  0  0  0
  4  1  1  0  0  0  0
  6  4  1  0  0  0  0
  8  1  1  0  0  0  0
  8 10  1  0  0  0  0
  9  8  1  0  0  0  0
 11 13  1  0  0  0  0
 11  8  1  0  0  0  0
 12 11  1  0  0  0  0
 14 11  1  0  0  0  0
M  END
$$$$
Title Card Required
 OpenBabel06272217483D

 14 13  0  0  0  0  0  0  0  0999 V2000
   -2.0407   -1.6901    0.7398 C   0  0  0  0  0  0  0  0  0  0  0  0
   -1.4686   -2.7115    0.4899 H   0  0  0  0  0  0  0  0  0  0  0  0
   -2.5656   -1.4109    1.6304 H   0  0  0  0  0  0  0  0  0  0  0  0
   -3.1229   -1.5618   -0.4054 C   0  0  0  0  0  0  0  0  0  0  0  0
   -4.0870   -1.8395   -0.1235 H   0  0  0  0  0  0  0  0  0  0  0  0
   -2.6176   -1.8733   -1.4059 H   0  0  0  0  0  0  0  0  0  0  0  0
    2.1520    0.5877   -0.0356 Br  0  0  0  0  0 15  0  0  0  0  0  0
   -1.2350   -0.4893    0.5542 C   0  0  0  0  0  0  0  0  0  0  0  0
   -0.2643   -0.5004   -0.1009 H   0  0  0  0  0  0  0  0  0  0  0  0
   -0.9764   -0.5226    1.5619 H   0  0  0  0  0  0  0  0  0  0  0  0
   -1.9807    0.5633   -0.2718 C   0  0  0  0  0  0  0  0  0  0  0  0
   -1.4451    0.7039   -1.3187 H   0  0  0  0  0  0  0  0  0  0  0  0
   -2.0319    1.5939    0.2665 H   0  0  0  0  0  0  0  0  0  0  0  0
   -3.3575   -0.1023   -0.3503 O   0  0  0  0  0  0  0  0  0  0  0  0
  1  3  1  0  0  0  0
  2  1  1  0  0  0  0
  4 14  1  0  0  0  0
  4  5  1  0  0  0  0
  4  1  1  0  0  0  0
  6  4  1  0  0  0  0
  8  1  1  0  0  0  0
  8 10  1  0  0  0  0
  9  8  1  0  0  0  0
 11 13  1  0  0  0  0
 11  8  1  0  0  0  0
 12 11  1  0  0  0  0
 14 11  1  0  0  0  0
M  END
$$$$
Title Card Required
 OpenBabel06272217483D

 14 13  0  0  0  0  0  0  0  0999 V2000
   -2.0125   -1.6985    0.7574 C   0  0  0  0  0  0  0  0  0  0  0  0
   -1.4548   -2.7160    0.4736 H   0  0  0  0  0  0  0  0  0  0  0  0
   -2.5464   -1.3893    1.6645 H   0  0  0  0  0  0  0  0  0  0  0  0
   -3.1374   -1.5504   -0.4197 C   0  0  0  0  0  0  0  0  0  0  0  0
   -4.0567   -1.7373   -0.0983 H   0  0  0  0  0  0  0  0  0  0  0  0
   -2.6060   -1.8613   -1.3967 H   0  0  0  0  0  0  0  0  0  0  0  0
    2.1504    0.5884   -0.0338 Br  0  0  0  0  0 15  0  0  0  0  0  0
   -1.2255   -0.4975    0.5422 C   0  0  0  0  0  0  0  0  0  0  0  0
   -0.2566   -0.5097   -0.1365 H   0  0  0  0  0  0  0  0  0  0  0  0
   -1.0331   -0.5676    1.5660 H   0  0  0  0  0  0  0  0  0  0  0  0
   -1.9798    0.5610   -0.2828 C   0  0  0  0  0  0  0  0  0  0  0  0
   -1.4852    0.6354   -1.2703 H   0  0  0  0  0  0  0  0  0  0  0  0
   -1.9404    1.6104    0.2369 H   0  0  0  0  0  0  0  0  0  0  0  0
   -3.3726   -0.1014   -0.3465 O   0  0  0  0  0  0  0  0  0  0  0  0
  1  3  1  0  0  0  0
  2  1  1  0  0  0  0
  4 14  1  0  0  0  0
  4  5  1  0  0  0  0
  4  1  1  0  0  0  0
  6  4  1  0  0  0  0
  8  1  1  0  0  0  0
  8 10  1  0  0  0  0
  9  8  1  0  0  0  0
 11 13  1  0  0  0  0
 11  8  1  0  0  0  0
 12 11  1  0  0  0  0
 14 11  1  0  0  0  0
M  END
$$$$
Title Card Required
 OpenBabel06272217483D

 14 13  0  0  0  0  0  0  0  0999 V2000
   -1.9867   -1.7130    0.7689 C   0  0  0  0  0  0  0  0  0  0  0  0
   -1.4605   -2.6862    0.4914 H   0  0  0  0  0  0  0  0  0  0  0  0
   -2.5304   -1.4022    1.7102 H   0  0  0  0  0  0  0  0  0  0  0  0
   -3.1442   -1.5318   -0.4344 C   0  0  0  0  0  0  0  0  0  0  0  0
   -4.1038   -1.6801   -0.0618 H   0  0  0  0  0  0  0  0  0  0  0  0
   -2.6219   -1.8465   -1.3682 H   0  0  0  0  0  0  0  0  0  0  0  0
    2.1487    0.5891   -0.0320 Br  0  0  0  0  0 15  0  0  0  0  0  0
   -1.2084   -0.5048    0.5232 C   0  0  0  0  0  0  0  0  0  0  0  0
   -0.2680   -0.5378   -0.1353 H   0  0  0  0  0  0  0  0  0  0  0  0
   -1.0558   -0.5582    1.6062 H   0  0  0  0  0  0  0  0  0  0  0  0
   -1.9824    0.5576   -0.2908 C   0  0  0  0  0  0  0  0  0  0  0  0
   -1.5374    0.5612   -1.2187 H   0  0  0  0  0  0  0  0  0  0  0  0
   -1.8560    1.5951    0.1843 H   0  0  0  0  0  0  0  0  0  0  0  0
   -3.3856   -0.0990   -0.3437 O   0  0  0  0  0  0  0  0  0  0  0  0
  1  3  1  0  0  0  0
  2  1  1  0  0  0  0
  4 14  1  0  0  0  0
  4  5  1  0  0  0  0
  4  1  1  0  0  0  0
  6  4  1  0  0  0  0
  8  1  1  0  0  0  0
  8 10  1  0  0  0  0
  9  8  1  0  0  0  0
 11 13  1  0  0  0  0
 11  8  1  0  0  0  0
 12 11  1  0  0  0  0
 14 11  1  0  0  0  0
M  END
$$$$
Title Card Required
 OpenBabel06272217483D

 14 13  0  0  0  0  0  0  0  0999 V2000
   -1.9691   -1.7294    0.7734 C   0  0  0  0  0  0  0  0  0  0  0  0
   -1.4755   -2.6435    0.5371 H   0  0  0  0  0  0  0  0  0  0  0  0
   -2.5123   -1.4530    1.7449 H   0  0  0  0  0  0  0  0  0  0  0  0
   -3.1455   -1.5093   -0.4442 C   0  0  0  0  0  0  0  0  0  0  0  0
   -4.1907   -1.6745   -0.0317 H   0  0  0  0  0  0  0  0  0  0  0  0
   -2.6574   -1.8355   -1.3405 H   0  0  0  0  0  0  0  0  0  0  0  0
    2.1470    0.5899   -0.0302 Br  0  0  0  0  0 15  0  0  0  0  0  0
   -1.1872   -0.5103    0.5033 C   0  0  0  0  0  0  0  0  0  0  0  0
   -0.2864   -0.5786   -0.1020 H   0  0  0  0  0  0  0  0  0  0  0  0
   -1.0419   -0.4933    1.6457 H   0  0  0  0  0  0  0  0  0  0  0  0
   -1.9891    0.5523   -0.2915 C   0  0  0  0  0  0  0  0  0  0  0  0
   -1.5739    0.4946   -1.2173 H   0  0  0  0  0  0  0  0  0  0  0  0
   -1.7967    1.5583    0.1221 H   0  0  0  0  0  0  0  0  0  0  0  0
   -3.3941   -0.0946   -0.3423 O   0  0  0  0  0  0  0  0  0  0  0  0
  1  3  1  0  0  0  0
  2  1  1  0  0  0  0
  4 14  1  0  0  0  0
  4  5  1  0  0  0  0
  4  1  1  0  0  0  0
  6  4  1  0  0  0  0
  8  1  1  0  0  0  0
  8 10  1  0  0  0  0
  9  8  1  0  0  0  0
 11 13  1  0  0  0  0
 11  8  1  0  0  0  0
 12 11  1  0  0  0  0
 14 11  1  0  0  0  0
M  END
$$$$
Title Card Required
 OpenBabel06272217483D

 14 13  0  0  0  0  0  0  0  0999 V2000
   -1.9598   -1.7435    0.7735 C   0  0  0  0  0  0  0  0  0  0  0  0
   -1.4815   -2.6225    0.5938 H   0  0  0  0  0  0  0  0  0  0  0  0
   -2.4881   -1.5315    1.7605 H   0  0  0  0  0  0  0  0  0  0  0  0
   -3.1475   -1.4852   -0.4462 C   0  0  0  0  0  0  0  0  0  0  0  0
   -4.2587   -1.7013   -0.0249 H   0  0  0  0  0  0  0  0  0  0  0  0
   -2.6981   -1.8329   -1.3342 H   0  0  0  0  0  0  0  0  0  0  0  0
    2.1454    0.5906   -0.0286 Br  0  0  0  0  0 15  0  0  0  0  0  0
   -1.1655   -0.5142    0.4872 C   0  0  0  0  0  0  0  0  0  0  0  0
   -0.2894   -0.6268   -0.0591 H   0  0  0  0  0  0  0  0  0  0  0  0
   -1.0041   -0.3909    1.6553 H   0  0  0  0  0  0  0  0  0  0  0  0
   -1.9986    0.5440   -0.2870 C   0  0  0  0  0  0  0  0  0  0  0  0
   -1.5924    0.4350   -1.2690 H   0  0  0  0  0  0  0  0  0  0  0  0
   -1.7610    1.5225    0.0628 H   0  0  0  0  0  0  0  0  0  0  0  0
   -3.3986   -0.0886   -0.3417 O   0  0  0  0  0  0  0  0  0  0  0  0
  1  3  1  0  0  0  0
  2  1  1  0  0  0  0
  4 14  1  0  0  0  0
  4  5  1  0  0  0  0
  4  1  1  0  0  0  0
  6  4  1  0  0  0  0
  8  1  1  0  0  0  0
  8 10  1  0  0  0  0
  9  8  1  0  0  0  0
 11 13  1  0  0  0  0
 11  8  1  0  0  0  0
 12 11  1  0  0  0  0
 14 11  1  0  0  0  0
M  END
$$$$
Title Card Required
 OpenBabel06272217483D

 14 13  0  0  0  0  0  0  0  0999 V2000
   -1.9580   -1.7529    0.7707 C   0  0  0  0  0  0  0  0  0  0  0  0
   -1.4665   -2.6442    0.6483 H   0  0  0  0  0  0  0  0  0  0  0  0
   -2.4590   -1.6239    1.7596 H   0  0  0  0  0  0  0  0  0  0  0  0
   -3.1522   -1.4613   -0.4405 C   0  0  0  0  0  0  0  0  0  0  0  0
   -4.2871   -1.7457   -0.0438 H   0  0  0  0  0  0  0  0  0  0  0  0
   -2.7367   -1.8386   -1.3541 H   0  0  0  0  0  0  0  0  0  0  0  0
    2.1440    0.5912   -0.0272 Br  0  0  0  0  0 15  0  0  0  0  0  0
   -1.1461   -0.5166    0.4772 C   0  0  0  0  0  0  0  0  0  0  0  0
   -0.2603   -0.6789   -0.0257 H   0  0  0  0  0  0  0  0  0  0  0  0
   -0.9539   -0.2708    1.6280 H   0  0  0  0  0  0  0  0  0  0  0  0
   -2.0089    0.5314   -0.2818 C   0  0  0  0  0  0  0  0  0  0  0  0
   -1.6065    0.3844   -1.3373 H   0  0  0  0  0  0  0  0  0  0  0  0
   -1.7435    1.5062    0.0147 H   0  0  0  0  0  0  0  0  0  0  0  0
   -3.3998   -0.0812   -0.3416 O   0  0  0  0  0  0  0  0  0  0  0  0
  1  3  1  0  0  0  0
  2  1  1  0  0  0  0
  4 14  1  0  0  0  0
  4  5  1  0  0  0  0
  4  1  1  0  0  0  0
  6  4  1  0  0  0  0
  8  1  1  0  0  0  0
  8 10  1  0  0  0  0
  9  8  1  0  0  0  0
 11 13  1  0  0  0  0
 11  8  1  0  0  0  0
 12 11  1  0  0  0  0
 14 11  1  0  0  0  0
M  END
$$$$
Title Card Required
 OpenBabel06272217483D

 14 13  0  0  0  0  0  0  0  0999 V2000
   -1.9611   -1.7583    0.7658 C   0  0  0  0  0  0  0  0  0  0  0  0
   -1.4371   -2.6950    0.6949 H   0  0  0  0  0  0  0  0  0  0  0  0
   -2.4307   -1.7151    1.7513 H   0  0  0  0  0  0  0  0  0  0  0  0
   -3.1591   -1.4397   -0.4296 C   0  0  0  0  0  0  0  0  0  0  0  0
   -4.2778   -1.7956   -0.0809 H   0  0  0  0  0  0  0  0  0  0  0  0
   -2.7733   -1.8466   -1.3873 H   0  0  0  0  0  0  0  0  0  0  0  0
    2.1426    0.5918   -0.0258 Br  0  0  0  0  0 15  0  0  0  0  0  0
   -1.1302   -0.5178    0.4730 C   0  0  0  0  0  0  0  0  0  0  0  0
   -0.2048   -0.7297   -0.0062 H   0  0  0  0  0  0  0  0  0  0  0  0
   -0.9010   -0.1523    1.5713 H   0  0  0  0  0  0  0  0  0  0  0  0
   -2.0181    0.5152   -0.2793 C   0  0  0  0  0  0  0  0  0  0  0  0
   -1.6251    0.3464   -1.3913 H   0  0  0  0  0  0  0  0  0  0  0  0
   -1.7400    1.5125   -0.0204 H   0  0  0  0  0  0  0  0  0  0  0  0
   -3.3986   -0.0731   -0.3414 O   0  0  0  0  0  0  0  0  0  0  0  0
  1  3  1  0  0  0  0
  2  1  1  0  0  0  0
  4 14  1  0  0  0  0
  4  5  1  0  0  0  0
  4  1  1  0  0  0  0
  6  4  1  0  0  0  0
  8  1  1  0  0  0  0
  8 10  1  0  0  0  0
  9  8  1  0  0  0  0
 11 13  1  0  0  0  0
 11  8  1  0  0  0  0
 12 11  1  0  0  0  0
 14 11  1  0  0  0  0
M  END
$$$$
Title Card Required
 OpenBabel06272217483D

 14 13  0  0  0  0  0  0  0  0999 V2000
   -1.9666   -1.7620    0.7589 C   0  0  0  0  0  0  0  0  0  0  0  0
   -1.4057   -2.7509    0.7337 H   0  0  0  0  0  0  0  0  0  0  0  0
   -2.4068   -1.8006    1.7440 H   0  0  0  0  0  0  0  0  0  0  0  0
   -3.1674   -1.4207   -0.4159 C   0  0  0  0  0  0  0  0  0  0  0  0
   -4.2399   -1.8454   -0.1292 H   0  0  0  0  0  0  0  0  0  0  0  0
   -2.8114   -1.8505   -1.4197 H   0  0  0  0  0  0  0  0  0  0  0  0
    2.1414    0.5924   -0.0246 Br  0  0  0  0  0 15  0  0  0  0  0  0
   -1.1161   -0.5180    0.4728 C   0  0  0  0  0  0  0  0  0  0  0  0
   -0.1403   -0.7765    0.0061 H   0  0  0  0  0  0  0  0  0  0  0  0
   -0.8487   -0.0412    1.4944 H   0  0  0  0  0  0  0  0  0  0  0  0
   -2.0259    0.4963   -0.2802 C   0  0  0  0  0  0  0  0  0  0  0  0
   -1.6501    0.3198   -1.4233 H   0  0  0  0  0  0  0  0  0  0  0  0
   -1.7481    1.5312   -0.0474 H   0  0  0  0  0  0  0  0  0  0  0  0
   -3.3955   -0.0642   -0.3411 O   0  0  0  0  0  0  0  0  0  0  0  0
  1  3  1  0  0  0  0
  2  1  1  0  0  0  0
  4 14  1  0  0  0  0
  4  5  1  0  0  0  0
  4  1  1  0  0  0  0
  6  4  1  0  0  0  0
  8  1  1  0  0  0  0
  8 10  1  0  0  0  0
  9  8  1  0  0  0  0
 11 13  1  0  0  0  0
 11  8  1  0  0  0  0
 12 11  1  0  0  0  0
 14 11  1  0  0  0  0
M  END
$$$$
Title Card Required
 OpenBabel06272217483D

 14 13  0  0  0  0  0  0  0  0999 V2000
   -1.9731   -1.7657    0.7500 C   0  0  0  0  0  0  0  0  0  0  0  0
   -1.3802   -2.7969    0.7640 H   0  0  0  0  0  0  0  0  0  0  0  0
   -2.3892   -1.8804    1.7420 H   0  0  0  0  0  0  0  0  0  0  0  0
   -3.1767   -1.4043   -0.4003 C   0  0  0  0  0  0  0  0  0  0  0  0
   -4.1804   -1.8937   -0.1845 H   0  0  0  0  0  0  0  0  0  0  0  0
   -2.8530   -1.8459   -1.4432 H   0  0  0  0  0  0  0  0  0  0  0  0
    2.1401    0.5930   -0.0233 Br  0  0  0  0  0 15  0  0  0  0  0  0
   -1.1020   -0.5178    0.4753 C   0  0  0  0  0  0  0  0  0  0  0  0
   -0.0810   -0.8168    0.0173 H   0  0  0  0  0  0  0  0  0  0  0  0
   -0.7968    0.0625    1.4029 H   0  0  0  0  0  0  0  0  0  0  0  0
   -2.0323    0.4751   -0.2847 C   0  0  0  0  0  0  0  0  0  0  0  0
   -1.6818    0.3030   -1.4331 H   0  0  0  0  0  0  0  0  0  0  0  0
   -1.7690    1.5513   -0.0708 H   0  0  0  0  0  0  0  0  0  0  0  0
   -3.3909   -0.0545   -0.3403 O   0  0  0  0  0  0  0  0  0  0  0  0
  1  2  1  0  0  0  0
  1  3  1  0  0  0  0
  4 14  1  0  0  0  0
  4  5  1  0  0  0  0
  4  1  1  0  0  0  0
  6  4  1  0  0  0  0
  8  1  1  0  0  0  0
  8 10  1  0  0  0  0
  9  8  1  0  0  0  0
 11 13  1  0  0  0  0
 11  8  1  0  0  0  0
 12 11  1  0  0  0  0
 14 11  1  0  0  0  0
M  END
$$$$
Title Card Required
 OpenBabel06272217483D

 14 13  0  0  0  0  0  0  0  0999 V2000
   -1.9801   -1.7702    0.7391 C   0  0  0  0  0  0  0  0  0  0  0  0
   -1.3657   -2.8240    0.7829 H   0  0  0  0  0  0  0  0  0  0  0  0
   -2.3787   -1.9539    1.7459 H   0  0  0  0  0  0  0  0  0  0  0  0
   -3.1863   -1.3904   -0.3836 C   0  0  0  0  0  0  0  0  0  0  0  0
   -4.1085   -1.9411   -0.2418 H   0  0  0  0  0  0  0  0  0  0  0  0
   -2.8977   -1.8293   -1.4521 H   0  0  0  0  0  0  0  0  0  0  0  0
    2.1389    0.5936   -0.0220 Br  0  0  0  0  0 15  0  0  0  0  0  0
   -1.0868   -0.5173    0.4794 C   0  0  0  0  0  0  0  0  0  0  0  0
   -0.0370   -0.8479    0.0303 H   0  0  0  0  0  0  0  0  0  0  0  0
   -0.7440    0.1584    1.3023 H   0  0  0  0  0  0  0  0  0  0  0  0
   -2.0369    0.4521   -0.2933 C   0  0  0  0  0  0  0  0  0  0  0  0
   -1.7196    0.2953   -1.4211 H   0  0  0  0  0  0  0  0  0  0  0  0
   -1.8045    1.5628   -0.0930 H   0  0  0  0  0  0  0  0  0  0  0  0
   -3.3848   -0.0436   -0.3387 O   0  0  0  0  0  0  0  0  0  0  0  0
  1  2  1  0  0  0  0
  1  3  1  0  0  0  0
  4 14  1  0  0  0  0
  4  5  1  0  0  0  0
  4  1  1  0  0  0  0
  6  4  1  0  0  0  0
  8  1  1  0  0  0  0
  8 10  1  0  0  0  0
  9  8  1  0  0  0  0
 11 13  1  0  0  0  0
 11  8  1  0  0  0  0
 12 11  1  0  0  0  0
 14 11  1  0  0  0  0
M  END
$$$$
Title Card Required
 OpenBabel06272217483D

 14 13  0  0  0  0  0  0  0  0999 V2000
   -1.9873   -1.7760    0.7269 C   0  0  0  0  0  0  0  0  0  0  0  0
   -1.3656   -2.8256    0.7853 H   0  0  0  0  0  0  0  0  0  0  0  0
   -2.3755   -2.0186    1.7523 H   0  0  0  0  0  0  0  0  0  0  0  0
   -3.1950   -1.3793   -0.3664 C   0  0  0  0  0  0  0  0  0  0  0  0
   -4.0404   -1.9916   -0.2944 H   0  0  0  0  0  0  0  0  0  0  0  0
   -2.9426   -1.7970   -1.4431 H   0  0  0  0  0  0  0  0  0  0  0  0
    2.1375    0.5942   -0.0207 Br  0  0  0  0  0 15  0  0  0  0  0  0
   -1.0698   -0.5169    0.4846 C   0  0  0  0  0  0  0  0  0  0  0  0
   -0.0167   -0.8671    0.0456 H   0  0  0  0  0  0  0  0  0  0  0  0
   -0.6894    0.2452    1.1997 H   0  0  0  0  0  0  0  0  0  0  0  0
   -2.0396    0.4278   -0.3065 C   0  0  0  0  0  0  0  0  0  0  0  0
   -1.7613    0.2963   -1.3901 H   0  0  0  0  0  0  0  0  0  0  0  0
   -1.8567    1.5569   -0.1148 H   0  0  0  0  0  0  0  0  0  0  0  0
   -3.3775   -0.0316   -0.3361 O   0  0  0  0  0  0  0  0  0  0  0  0
  1  2  1  0  0  0  0
  1  3  1  0  0  0  0
  4 14  1  0  0  0  0
  4  5  1  0  0  0  0
  4  1  1  0  0  0  0
  6  4  1  0  0  0  0
  8  1  1  0  0  0  0
  8 10  1  0  0  0  0
  9  8  1  0  0  0  0
 11 13  1  0  0  0  0
 11  8  1  0  0  0  0
 12 11  1  0  0  0  0
 14 11  1  0  0  0  0
M  END
$$$$
Title Card Required
 OpenBabel06272217483D

 14 13  0  0  0  0  0  0  0  0999 V2000
   -1.9945   -1.7832    0.7145 C   0  0  0  0  0  0  0  0  0  0  0  0
   -1.3824   -2.7973    0.7645 H   0  0  0  0  0  0  0  0  0  0  0  0
   -2.3795   -2.0686    1.7545 H   0  0  0  0  0  0  0  0  0  0  0  0
   -3.2012   -1.3709   -0.3492 C   0  0  0  0  0  0  0  0  0  0  0  0
   -3.9973   -2.0509   -0.3335 H   0  0  0  0  0  0  0  0  0  0  0  0
   -2.9812   -1.7474   -1.4161 H   0  0  0  0  0  0  0  0  0  0  0  0
    2.1361    0.5950   -0.0193 Br  0  0  0  0  0 15  0  0  0  0  0  0
   -1.0509   -0.5166    0.4903 C   0  0  0  0  0  0  0  0  0  0  0  0
   -0.0261   -0.8720    0.0614 H   0  0  0  0  0  0  0  0  0  0  0  0
   -0.6332    0.3188    1.1046 H   0  0  0  0  0  0  0  0  0  0  0  0
   -2.0399    0.4031   -0.3242 C   0  0  0  0  0  0  0  0  0  0  0  0
   -1.8005    0.3041   -1.3530 H   0  0  0  0  0  0  0  0  0  0  0  0
   -1.9249    1.5271   -0.1356 H   0  0  0  0  0  0  0  0  0  0  0  0
   -3.3695   -0.0187   -0.3318 O   0  0  0  0  0  0  0  0  0  0  0  0
  1  2  1  0  0  0  0
  1  3  1  0  0  0  0
  4  5  1  0  0  0  0
  4 14  1  0  0  0  0
  4  1  1  0  0  0  0
  6  4  1  0  0  0  0
  8  1  1  0  0  0  0
  8 10  1  0  0  0  0
  9  8  1  0  0  0  0
 11 13  1  0  0  0  0
 11  8  1  0  0  0  0
 12 11  1  0  0  0  0
 14 11  1  0  0  0  0
M  END
$$$$
Title Card Required
 OpenBabel06272217483D

 14 13  0  0  0  0  0  0  0  0999 V2000
   -2.0018   -1.7912    0.7031 C   0  0  0  0  0  0  0  0  0  0  0  0
   -1.4139   -2.7428    0.7150 H   0  0  0  0  0  0  0  0  0  0  0  0
   -2.3903   -2.0970    1.7459 H   0  0  0  0  0  0  0  0  0  0  0  0
   -3.2042   -1.3660   -0.3325 C   0  0  0  0  0  0  0  0  0  0  0  0
   -3.9906   -2.1167   -0.3514 H   0  0  0  0  0  0  0  0  0  0  0  0
   -3.0038   -1.6826   -1.3781 H   0  0  0  0  0  0  0  0  0  0  0  0
    2.1346    0.5957   -0.0178 Br  0  0  0  0  0 15  0  0  0  0  0  0
   -1.0314   -0.5161    0.4958 C   0  0  0  0  0  0  0  0  0  0  0  0
   -0.0638   -0.8641    0.0720 H   0  0  0  0  0  0  0  0  0  0  0  0
   -0.5778    0.3727    1.0272 H   0  0  0  0  0  0  0  0  0  0  0  0
   -2.0376    0.3795   -0.3445 C   0  0  0  0  0  0  0  0  0  0  0  0
   -1.8259    0.3148   -1.3392 H   0  0  0  0  0  0  0  0  0  0  0  0
   -2.0037    1.4748   -0.1527 H   0  0  0  0  0  0  0  0  0  0  0  0
   -3.3616   -0.0057   -0.3253 O   0  0  0  0  0  0  0  0  0  0  0  0
  1  2  1  0  0  0  0
  1  3  1  0  0  0  0
  4 14  1  0  0  0  0
  4  1  1  0  0  0  0
  5  4  1  0  0  0  0
  6  4  1  0  0  0  0
  8  1  1  0  0  0  0
  8 10  1  0  0  0  0
  9  8  1  0  0  0  0
 11 14  1  0  0  0  0
 11 13  1  0  0  0  0
 11  8  1  0  0  0  0
 12 11  1  0  0  0  0
M  END
$$$$
Title Card Required
 OpenBabel06272217483D

 14 13  0  0  0  0  0  0  0  0999 V2000
   -2.0099   -1.7978    0.6937 C   0  0  0  0  0  0  0  0  0  0  0  0
   -1.4489   -2.6806    0.6331 H   0  0  0  0  0  0  0  0  0  0  0  0
   -2.4068   -2.0995    1.7231 H   0  0  0  0  0  0  0  0  0  0  0  0
   -3.2050   -1.3657   -0.3160 C   0  0  0  0  0  0  0  0  0  0  0  0
   -4.0125   -2.1735   -0.3432 H   0  0  0  0  0  0  0  0  0  0  0  0
   -3.0017   -1.6096   -1.3435 H   0  0  0  0  0  0  0  0  0  0  0  0
    2.1331    0.5965   -0.0162 Br  0  0  0  0  0 15  0  0  0  0  0  0
   -1.0131   -0.5146    0.5010 C   0  0  0  0  0  0  0  0  0  0  0  0
   -0.1145   -0.8513    0.0667 H   0  0  0  0  0  0  0  0  0  0  0  0
   -0.5274    0.4006    0.9754 H   0  0  0  0  0  0  0  0  0  0  0  0
   -2.0330    0.3576   -0.3652 C   0  0  0  0  0  0  0  0  0  0  0  0
   -1.8274    0.3237   -1.3791 H   0  0  0  0  0  0  0  0  0  0  0  0
   -2.0834    1.4128   -0.1621 H   0  0  0  0  0  0  0  0  0  0  0  0
   -3.3549    0.0064   -0.3162 O   0  0  0  0  0  0  0  0  0  0  0  0
  1  3  1  0  0  0  0
  2  1  1  0  0  0  0
  4  1  1  0  0  0  0
  5  4  1  0  0  0  0
  6  4  1  0  0  0  0
  8  1  1  0  0  0  0
  8 10  1  0  0  0  0
  9  8  1  0  0  0  0
 11 14  1  0  0  0  0
 11 13  1  0  0  0  0
 11  8  1  0  0  0  0
 12 11  1  0  0  0  0
 14  4  1  0  0  0  0
M  END
$$$$
Title Card Required
 OpenBabel06272217483D

 14 13  0  0  0  0  0  0  0  0999 V2000
   -2.0199   -1.8000    0.6869 C   0  0  0  0  0  0  0  0  0  0  0  0
   -1.4678   -2.6442    0.5182 H   0  0  0  0  0  0  0  0  0  0  0  0
   -2.4276   -2.0774    1.6888 H   0  0  0  0  0  0  0  0  0  0  0  0
   -3.2053   -1.3711   -0.2994 C   0  0  0  0  0  0  0  0  0  0  0  0
   -4.0456   -2.2012   -0.3087 H   0  0  0  0  0  0  0  0  0  0  0  0
   -2.9705   -1.5398   -1.3279 H   0  0  0  0  0  0  0  0  0  0  0  0
    2.1315    0.5974   -0.0146 Br  0  0  0  0  0 15  0  0  0  0  0  0
   -0.9994   -0.5110    0.5060 C   0  0  0  0  0  0  0  0  0  0  0  0
   -0.1502   -0.8470    0.0311 H   0  0  0  0  0  0  0  0  0  0  0  0
   -0.4861    0.3984    0.9548 H   0  0  0  0  0  0  0  0  0  0  0  0
   -2.0255    0.3376   -0.3864 C   0  0  0  0  0  0  0  0  0  0  0  0
   -1.8052    0.3291   -1.4659 H   0  0  0  0  0  0  0  0  0  0  0  0
   -2.1518    1.3641   -0.1599 H   0  0  0  0  0  0  0  0  0  0  0  0
   -3.3502    0.0164   -0.3042 O   0  0  0  0  0  0  0  0  0  0  0  0
  1  3  1  0  0  0  0
  2  1  1  0  0  0  0
  4  1  1  0  0  0  0
  5  4  1  0  0  0  0
  6  4  1  0  0  0  0
  8  1  1  0  0  0  0
  8 10  1  0  0  0  0
  9  8  1  0  0  0  0
 11 14  1  0  0  0  0
 11 13  1  0  0  0  0
 11  8  1  0  0  0  0
 12 11  1  0  0  0  0
 14  4  1  0  0  0  0
M  END
$$$$
Title Card Required
 OpenBabel06272217483D

 14 13  0  0  0  0  0  0  0  0999 V2000
   -2.0313   -1.7963    0.6826 C   0  0  0  0  0  0  0  0  0  0  0  0
   -1.4632   -2.6477    0.3838 H   0  0  0  0  0  0  0  0  0  0  0  0
   -2.4490   -2.0414    1.6545 H   0  0  0  0  0  0  0  0  0  0  0  0
   -3.2060   -1.3813   -0.2840 C   0  0  0  0  0  0  0  0  0  0  0  0
   -4.0734   -2.1899   -0.2570 H   0  0  0  0  0  0  0  0  0  0  0  0
   -2.9185   -1.4863   -1.3330 H   0  0  0  0  0  0  0  0  0  0  0  0
    2.1300    0.5982   -0.0131 Br  0  0  0  0  0 15  0  0  0  0  0  0
   -0.9924   -0.5054    0.5102 C   0  0  0  0  0  0  0  0  0  0  0  0
   -0.1559   -0.8577   -0.0357 H   0  0  0  0  0  0  0  0  0  0  0  0
   -0.4575    0.3699    0.9660 H   0  0  0  0  0  0  0  0  0  0  0  0
   -2.0155    0.3207   -0.4086 C   0  0  0  0  0  0  0  0  0  0  0  0
   -1.7718    0.3302   -1.5541 H   0  0  0  0  0  0  0  0  0  0  0  0
   -2.1954    1.3453   -0.1471 H   0  0  0  0  0  0  0  0  0  0  0  0
   -3.3480    0.0230   -0.2904 O   0  0  0  0  0  0  0  0  0  0  0  0
  1  3  1  0  0  0  0
  2  1  1  0  0  0  0
  4  5  1  0  0  0  0
  4  1  1  0  0  0  0
  6  4  1  0  0  0  0
  8  1  1  0  0  0  0
  8 10  1  0  0  0  0
  9  8  1  0  0  0  0
 11 14  1  0  0  0  0
 11 13  1  0  0  0  0
 11  8  1  0  0  0  0
 12 11  1  0  0  0  0
 14  4  1  0  0  0  0
M  END
$$$$
Title Card Required
 OpenBabel06272217483D

 14 13  0  0  0  0  0  0  0  0999 V2000
   -2.0419   -1.7890    0.6789 C   0  0  0  0  0  0  0  0  0  0  0  0
   -1.4536   -2.6661    0.2463 H   0  0  0  0  0  0  0  0  0  0  0  0
   -2.4703   -2.0028    1.6313 H   0  0  0  0  0  0  0  0  0  0  0  0
   -3.2072   -1.3944   -0.2708 C   0  0  0  0  0  0  0  0  0  0  0  0
   -4.0904   -2.1452   -0.1970 H   0  0  0  0  0  0  0  0  0  0  0  0
   -2.8582   -1.4522   -1.3441 H   0  0  0  0  0  0  0  0  0  0  0  0
    2.1287    0.5991   -0.0116 Br  0  0  0  0  0 15  0  0  0  0  0  0
   -0.9904   -0.4991    0.5120 C   0  0  0  0  0  0  0  0  0  0  0  0
   -0.1486   -0.8758   -0.1169 H   0  0  0  0  0  0  0  0  0  0  0  0
   -0.4388    0.3235    1.0036 H   0  0  0  0  0  0  0  0  0  0  0  0
   -2.0036    0.3077   -0.4326 C   0  0  0  0  0  0  0  0  0  0  0  0
   -1.7379    0.3270   -1.6154 H   0  0  0  0  0  0  0  0  0  0  0  0
   -2.2108    1.3495   -0.1304 H   0  0  0  0  0  0  0  0  0  0  0  0
   -3.3475    0.0262   -0.2754 O   0  0  0  0  0  0  0  0  0  0  0  0
  1  3  1  0  0  0  0
  2  1  1  0  0  0  0
  4  5  1  0  0  0  0
  4  1  1  0  0  0  0
  6  4  1  0  0  0  0
  8  1  1  0  0  0  0
  8 10  1  0  0  0  0
  9  8  1  0  0  0  0
 11 14  1  0  0  0  0
 11 13  1  0  0  0  0
 11  8  1  0  0  0  0
 12 11  1  0  0  0  0
 14  4  1  0  0  0  0
M  END
$$$$
Title Card Required
 OpenBabel06272217483D

 14 13  0  0  0  0  0  0  0  0999 V2000
   -2.0505   -1.7801    0.6738 C   0  0  0  0  0  0  0  0  0  0  0  0
   -1.4573   -2.6742    0.1188 H   0  0  0  0  0  0  0  0  0  0  0  0
   -2.4919   -1.9677    1.6262 H   0  0  0  0  0  0  0  0  0  0  0  0
   -3.2084   -1.4095   -0.2600 C   0  0  0  0  0  0  0  0  0  0  0  0
   -4.0986   -2.0737   -0.1315 H   0  0  0  0  0  0  0  0  0  0  0  0
   -2.7982   -1.4383   -1.3472 H   0  0  0  0  0  0  0  0  0  0  0  0
    2.1273    0.5999   -0.0102 Br  0  0  0  0  0 15  0  0  0  0  0  0
   -0.9915   -0.4937    0.5096 C   0  0  0  0  0  0  0  0  0  0  0  0
   -0.1485   -0.8914   -0.1958 H   0  0  0  0  0  0  0  0  0  0  0  0
   -0.4265    0.2632    1.0658 H   0  0  0  0  0  0  0  0  0  0  0  0
   -1.9899    0.2994   -0.4591 C   0  0  0  0  0  0  0  0  0  0  0  0
   -1.7075    0.3188   -1.6424 H   0  0  0  0  0  0  0  0  0  0  0  0
   -2.1962    1.3631   -0.1167 H   0  0  0  0  0  0  0  0  0  0  0  0
   -3.3482    0.0262   -0.2589 O   0  0  0  0  0  0  0  0  0  0  0  0
  1  3  1  0  0  0  0
  2  1  1  0  0  0  0
  4 14  1  0  0  0  0
  4  5  1  0  0  0  0
  4  1  1  0  0  0  0
  6  4  1  0  0  0  0
  8  1  1  0  0  0  0
  8 10  1  0  0  0  0
  9  8  1  0  0  0  0
 11 14  1  0  0  0  0
 11 13  1  0  0  0  0
 11  8  1  0  0  0  0
 12 11  1  0  0  0  0
M  END
$$$$
Title Card Required
 OpenBabel06272217483D

 14 13  0  0  0  0  0  0  0  0999 V2000
   -2.0559   -1.7708    0.6660 C   0  0  0  0  0  0  0  0  0  0  0  0
   -1.4841   -2.6593    0.0190 H   0  0  0  0  0  0  0  0  0  0  0  0
   -2.5103   -1.9404    1.6399 H   0  0  0  0  0  0  0  0  0  0  0  0
   -3.2087   -1.4245   -0.2524 C   0  0  0  0  0  0  0  0  0  0  0  0
   -4.1060   -1.9873   -0.0641 H   0  0  0  0  0  0  0  0  0  0  0  0
   -2.7493   -1.4478   -1.3329 H   0  0  0  0  0  0  0  0  0  0  0  0
    2.1259    0.6008   -0.0087 Br  0  0  0  0  0 15  0  0  0  0  0  0
   -0.9948   -0.4902    0.5012 C   0  0  0  0  0  0  0  0  0  0  0  0
   -0.1673   -0.8966   -0.2554 H   0  0  0  0  0  0  0  0  0  0  0  0
   -0.4200    0.1915    1.1496 H   0  0  0  0  0  0  0  0  0  0  0  0
   -1.9749    0.2970   -0.4868 C   0  0  0  0  0  0  0  0  0  0  0  0
   -1.6838    0.3053   -1.6323 H   0  0  0  0  0  0  0  0  0  0  0  0
   -2.1494    1.3745   -0.1134 H   0  0  0  0  0  0  0  0  0  0  0  0
   -3.3494    0.0228   -0.2410 O   0  0  0  0  0  0  0  0  0  0  0  0
  1  3  1  0  0  0  0
  2  1  1  0  0  0  0
  4 14  1  0  0  0  0
  4  5  1  0  0  0  0
  4  1  1  0  0  0  0
  6  4  1  0  0  0  0
  8  1  1  0  0  0  0
  8 10  1  0  0  0  0
  9  8  1  0  0  0  0
 11 14  1  0  0  0  0
 11 13  1  0  0  0  0
 11  8  1  0  0  0  0
 12 11  1  0  0  0  0
M  END
$$$$
Title Card Required
 OpenBabel06272217483D

 14 13  0  0  0  0  0  0  0  0999 V2000
   -2.0579   -1.7622    0.6563 C   0  0  0  0  0  0  0  0  0  0  0  0
   -1.5325   -2.6219   -0.0380 H   0  0  0  0  0  0  0  0  0  0  0  0
   -2.5185   -1.9230    1.6621 H   0  0  0  0  0  0  0  0  0  0  0  0
   -3.2069   -1.4366   -0.2483 C   0  0  0  0  0  0  0  0  0  0  0  0
   -4.1243   -1.9052    0.0002 H   0  0  0  0  0  0  0  0  0  0  0  0
   -2.7218   -1.4808   -1.3006 H   0  0  0  0  0  0  0  0  0  0  0  0
    2.1246    0.6017   -0.0073 Br  0  0  0  0  0 15  0  0  0  0  0  0
   -0.9998   -0.4896    0.4869 C   0  0  0  0  0  0  0  0  0  0  0  0
   -0.2051   -0.8883   -0.2843 H   0  0  0  0  0  0  0  0  0  0  0  0
   -0.4223    0.1112    1.2420 H   0  0  0  0  0  0  0  0  0  0  0  0
   -1.9601    0.3010   -0.5126 C   0  0  0  0  0  0  0  0  0  0  0  0
   -1.6688    0.2870   -1.5938 H   0  0  0  0  0  0  0  0  0  0  0  0
   -2.0760    1.3762   -0.1258 H   0  0  0  0  0  0  0  0  0  0  0  0
   -3.3501    0.0166   -0.2232 O   0  0  0  0  0  0  0  0  0  0  0  0
  1  3  1  0  0  0  0
  2  1  1  0  0  0  0
  4 14  1  0  0  0  0
  4  5  1  0  0  0  0
  4  1  1  0  0  0  0
  6  4  1  0  0  0  0
  8  1  1  0  0  0  0
  8 10  1  0  0  0  0
  9  8  1  0  0  0  0
 11 14  1  0  0  0  0
 11 13  1  0  0  0  0
 11  8  1  0  0  0  0
 12 11  1  0  0  0  0
M  END
$$$$
Title Card Required
 OpenBabel06272217483D

 14 13  0  0  0  0  0  0  0  0999 V2000
   -2.0573   -1.7547    0.6460 C   0  0  0  0  0  0  0  0  0  0  0  0
   -1.5929   -2.5719   -0.0511 H   0  0  0  0  0  0  0  0  0  0  0  0
   -2.5111   -1.9142    1.6800 H   0  0  0  0  0  0  0  0  0  0  0  0
   -3.2033   -1.4444   -0.2471 C   0  0  0  0  0  0  0  0  0  0  0  0
   -4.1571   -1.8385    0.0579 H   0  0  0  0  0  0  0  0  0  0  0  0
   -2.7186   -1.5324   -1.2589 H   0  0  0  0  0  0  0  0  0  0  0  0
    2.1234    0.6025   -0.0060 Br  0  0  0  0  0 15  0  0  0  0  0  0
   -1.0058   -0.4913    0.4686 C   0  0  0  0  0  0  0  0  0  0  0  0
   -0.2523   -0.8699   -0.2839 H   0  0  0  0  0  0  0  0  0  0  0  0
   -0.4373    0.0244    1.3267 H   0  0  0  0  0  0  0  0  0  0  0  0
   -1.9468    0.3102   -0.5335 C   0  0  0  0  0  0  0  0  0  0  0  0
   -1.6595    0.2650   -1.5500 H   0  0  0  0  0  0  0  0  0  0  0  0
   -1.9869    1.3686   -0.1535 H   0  0  0  0  0  0  0  0  0  0  0  0
   -3.3497    0.0086   -0.2065 O   0  0  0  0  0  0  0  0  0  0  0  0
  1  3  1  0  0  0  0
  2  1  1  0  0  0  0
  4 14  1  0  0  0  0
  4  5  1  0  0  0  0
  4  1  1  0  0  0  0
  6  4  1  0  0  0  0
  8  1  1  0  0  0  0
  8 10  1  0  0  0  0
  9  8  1  0  0  0  0
 11 14  1  0  0  0  0
 11 13  1  0  0  0  0
 11  8  1  0  0  0  0
 12 11  1  0  0  0  0
M  END
$$$$
Title Card Required
 OpenBabel06272217483D

 14 13  0  0  0  0  0  0  0  0999 V2000
   -2.0549   -1.7478    0.6360 C   0  0  0  0  0  0  0  0  0  0  0  0
   -1.6554   -2.5215   -0.0288 H   0  0  0  0  0  0  0  0  0  0  0  0
   -2.4866   -1.9116    1.6862 H   0  0  0  0  0  0  0  0  0  0  0  0
   -3.1992   -1.4483   -0.2469 C   0  0  0  0  0  0  0  0  0  0  0  0
   -4.1964   -1.7855    0.1074 H   0  0  0  0  0  0  0  0  0  0  0  0
   -2.7369   -1.5986   -1.2189 H   0  0  0  0  0  0  0  0  0  0  0  0
    2.1222    0.6034   -0.0047 Br  0  0  0  0  0 15  0  0  0  0  0  0
   -1.0132   -0.4949    0.4480 C   0  0  0  0  0  0  0  0  0  0  0  0
   -0.2971   -0.8476   -0.2646 H   0  0  0  0  0  0  0  0  0  0  0  0
   -0.4677   -0.0692    1.3938 H   0  0  0  0  0  0  0  0  0  0  0  0
   -1.9353    0.3234   -0.5480 C   0  0  0  0  0  0  0  0  0  0  0  0
   -1.6501    0.2379   -1.5267 H   0  0  0  0  0  0  0  0  0  0  0  0
   -1.8891    1.3575   -0.1936 H   0  0  0  0  0  0  0  0  0  0  0  0
   -3.3478   -0.0007   -0.1911 O   0  0  0  0  0  0  0  0  0  0  0  0
  1  3  1  0  0  0  0
  2  1  1  0  0  0  0
  4 14  1  0  0  0  0
  4  5  1  0  0  0  0
  4  1  1  0  0  0  0
  6  4  1  0  0  0  0
  8  1  1  0  0  0  0
  8 10  1  0  0  0  0
  9  8  1  0  0  0  0
 11 13  1  0  0  0  0
 11 14  1  0  0  0  0
 11  8  1  0  0  0  0
 12 11  1  0  0  0  0
M  END
$$$$
Title Card Required
 OpenBabel06272217483D

 14 13  0  0  0  0  0  0  0  0999 V2000
   -2.0516   -1.7403    0.6274 C   0  0  0  0  0  0  0  0  0  0  0  0
   -1.7083   -2.4885    0.0160 H   0  0  0  0  0  0  0  0  0  0  0  0
   -2.4444   -1.9138    1.6783 H   0  0  0  0  0  0  0  0  0  0  0  0
   -3.1964   -1.4485   -0.2461 C   0  0  0  0  0  0  0  0  0  0  0  0
   -4.2304   -1.7429    0.1457 H   0  0  0  0  0  0  0  0  0  0  0  0
   -2.7732   -1.6786   -1.1928 H   0  0  0  0  0  0  0  0  0  0  0  0
    2.1210    0.6042   -0.0033 Br  0  0  0  0  0 15  0  0  0  0  0  0
   -1.0230   -0.4999    0.4268 C   0  0  0  0  0  0  0  0  0  0  0  0
   -0.3234   -0.8298   -0.2410 H   0  0  0  0  0  0  0  0  0  0  0  0
   -0.5157   -0.1689    1.4367 H   0  0  0  0  0  0  0  0  0  0  0  0
   -1.9256    0.3397   -0.5552 C   0  0  0  0  0  0  0  0  0  0  0  0
   -1.6368    0.2027   -1.5407 H   0  0  0  0  0  0  0  0  0  0  0  0
   -1.7858    1.3523   -0.2433 H   0  0  0  0  0  0  0  0  0  0  0  0
   -3.3439   -0.0108   -0.1770 O   0  0  0  0  0  0  0  0  0  0  0  0
  1  3  1  0  0  0  0
  2  1  1  0  0  0  0
  4 14  1  0  0  0  0
  4  5  1  0  0  0  0
  4  1  1  0  0  0  0
  6  4  1  0  0  0  0
  8  1  1  0  0  0  0
  8 10  1  0  0  0  0
  9  8  1  0  0  0  0
 11 13  1  0  0  0  0
 11 14  1  0  0  0  0
 11  8  1  0  0  0  0
 12 11  1  0  0  0  0
M  END
$$$$
Title Card Required
 OpenBabel06272217483D

 14 13  0  0  0  0  0  0  0  0999 V2000
   -2.0482   -1.7307    0.6214 C   0  0  0  0  0  0  0  0  0  0  0  0
   -1.7359   -2.4979    0.0640 H   0  0  0  0  0  0  0  0  0  0  0  0
   -2.3877   -1.9194    1.6586 H   0  0  0  0  0  0  0  0  0  0  0  0
   -3.1968   -1.4450   -0.2430 C   0  0  0  0  0  0  0  0  0  0  0  0
   -4.2483   -1.7105    0.1691 H   0  0  0  0  0  0  0  0  0  0  0  0
   -2.8236   -1.7685   -1.1910 H   0  0  0  0  0  0  0  0  0  0  0  0
    2.1198    0.6051   -0.0021 Br  0  0  0  0  0 15  0  0  0  0  0  0
   -1.0364   -0.5060    0.4072 C   0  0  0  0  0  0  0  0  0  0  0  0
   -0.3133   -0.8251   -0.2296 H   0  0  0  0  0  0  0  0  0  0  0  0
   -0.5793   -0.2677    1.4504 H   0  0  0  0  0  0  0  0  0  0  0  0
   -1.9178    0.3573   -0.5559 C   0  0  0  0  0  0  0  0  0  0  0  0
   -1.6225    0.1595   -1.5857 H   0  0  0  0  0  0  0  0  0  0  0  0
   -1.6831    1.3627   -0.2977 H   0  0  0  0  0  0  0  0  0  0  0  0
   -3.3376   -0.0210   -0.1646 O   0  0  0  0  0  0  0  0  0  0  0  0
  1  3  1  0  0  0  0
  2  1  1  0  0  0  0
  4 14  1  0  0  0  0
  4  5  1  0  0  0  0
  4  1  1  0  0  0  0
  6  4  1  0  0  0  0
  8  1  1  0  0  0  0
  8 10  1  0  0  0  0
  9  8  1  0  0  0  0
 11 13  1  0  0  0  0
 11 14  1  0  0  0  0
 11  8  1  0  0  0  0
 12 11  1  0  0  0  0
M  END
$$$$
Title Card Required
 OpenBabel06272217483D

 14 13  0  0  0  0  0  0  0  0999 V2000
   -2.0450   -1.7193    0.6181 C   0  0  0  0  0  0  0  0  0  0  0  0
   -1.7329   -2.5560    0.1022 H   0  0  0  0  0  0  0  0  0  0  0  0
   -2.3262   -1.9263    1.6370 H   0  0  0  0  0  0  0  0  0  0  0  0
   -3.2005   -1.4388   -0.2379 C   0  0  0  0  0  0  0  0  0  0  0  0
   -4.2466   -1.6896    0.1773 H   0  0  0  0  0  0  0  0  0  0  0  0
   -2.8835   -1.8574   -1.2093 H   0  0  0  0  0  0  0  0  0  0  0  0
    2.1187    0.6060   -0.0008 Br  0  0  0  0  0 15  0  0  0  0  0  0
   -1.0524   -0.5130    0.3906 C   0  0  0  0  0  0  0  0  0  0  0  0
   -0.2679   -0.8339   -0.2332 H   0  0  0  0  0  0  0  0  0  0  0  0
   -0.6500   -0.3527    1.4382 H   0  0  0  0  0  0  0  0  0  0  0  0
   -1.9115    0.3739   -0.5528 C   0  0  0  0  0  0  0  0  0  0  0  0
   -1.6148    0.1150   -1.6342 H   0  0  0  0  0  0  0  0  0  0  0  0
   -1.5909    1.3894   -0.3510 H   0  0  0  0  0  0  0  0  0  0  0  0
   -3.3296   -0.0302   -0.1548 O   0  0  0  0  0  0  0  0  0  0  0  0
  1  3  1  0  0  0  0
  2  1  1  0  0  0  0
  4 14  1  0  0  0  0
  4  5  1  0  0  0  0
  4  1  1  0  0  0  0
  6  4  1  0  0  0  0
  8  1  1  0  0  0  0
  8 10  1  0  0  0  0
  9  8  1  0  0  0  0
 11 13  1  0  0  0  0
 11 14  1  0  0  0  0
 11  8  1  0  0  0  0
 12 11  1  0  0  0  0
M  END
$$$$
Title Card Required
 OpenBabel06272217483D

 14 13  0  0  0  0  0  0  0  0999 V2000
   -2.0415   -1.7077    0.6152 C   0  0  0  0  0  0  0  0  0  0  0  0
   -1.7095   -2.6421    0.1377 H   0  0  0  0  0  0  0  0  0  0  0  0
   -2.2656   -1.9333    1.6241 H   0  0  0  0  0  0  0  0  0  0  0  0
   -3.2068   -1.4311   -0.2316 C   0  0  0  0  0  0  0  0  0  0  0  0
   -4.2294   -1.6791    0.1749 H   0  0  0  0  0  0  0  0  0  0  0  0
   -2.9528   -1.9384   -1.2339 H   0  0  0  0  0  0  0  0  0  0  0  0
    2.1176    0.6068    0.0003 Br  0  0  0  0  0 15  0  0  0  0  0  0
   -1.0696   -0.5216    0.3754 C   0  0  0  0  0  0  0  0  0  0  0  0
   -0.2051   -0.8482   -0.2401 H   0  0  0  0  0  0  0  0  0  0  0  0
   -0.7217   -0.4197    1.4106 H   0  0  0  0  0  0  0  0  0  0  0  0
   -1.9057    0.3891   -0.5482 C   0  0  0  0  0  0  0  0  0  0  0  0
   -1.6177    0.0742   -1.6675 H   0  0  0  0  0  0  0  0  0  0  0  0
   -1.5117    1.4242   -0.4033 H   0  0  0  0  0  0  0  0  0  0  0  0
   -3.3199   -0.0378   -0.1473 O   0  0  0  0  0  0  0  0  0  0  0  0
  1  3  1  0  0  0  0
  2  1  1  0  0  0  0
  4 14  1  0  0  0  0
  4  5  1  0  0  0  0
  4  1  1  0  0  0  0
  6  4  1  0  0  0  0
  8  1  1  0  0  0  0
  8 10  1  0  0  0  0
  9  8  1  0  0  0  0
 11 13  1  0  0  0  0
 11 14  1  0  0  0  0
 11  8  1  0  0  0  0
 12 11  1  0  0  0  0
M  END
$$$$
Title Card Required
 OpenBabel06272217483D

 14 13  0  0  0  0  0  0  0  0999 V2000
   -2.0366   -1.6977    0.6107 C   0  0  0  0  0  0  0  0  0  0  0  0
   -1.6752   -2.7350    0.1822 H   0  0  0  0  0  0  0  0  0  0  0  0
   -2.2064   -1.9396    1.6274 H   0  0  0  0  0  0  0  0  0  0  0  0
   -3.2155   -1.4226   -0.2247 C   0  0  0  0  0  0  0  0  0  0  0  0
   -4.2025   -1.6786    0.1667 H   0  0  0  0  0  0  0  0  0  0  0  0
   -3.0357   -2.0079   -1.2539 H   0  0  0  0  0  0  0  0  0  0  0  0
    2.1165    0.6076    0.0015 Br  0  0  0  0  0 15  0  0  0  0  0  0
   -1.0873   -0.5331    0.3588 C   0  0  0  0  0  0  0  0  0  0  0  0
   -0.1403   -0.8612   -0.2390 H   0  0  0  0  0  0  0  0  0  0  0  0
   -0.7926   -0.4672    1.3780 H   0  0  0  0  0  0  0  0  0  0  0  0
   -1.8995    0.4040   -0.5428 C   0  0  0  0  0  0  0  0  0  0  0  0
   -1.6334    0.0387   -1.6777 H   0  0  0  0  0  0  0  0  0  0  0  0
   -1.4455    1.4586   -0.4579 H   0  0  0  0  0  0  0  0  0  0  0  0
   -3.3082   -0.0441   -0.1417 O   0  0  0  0  0  0  0  0  0  0  0  0
  1  3  1  0  0  0  0
  2  1  1  0  0  0  0
  4 14  1  0  0  0  0
  4  5  1  0  0  0  0
  4  1  1  0  0  0  0
  6  4  1  0  0  0  0
  8  1  1  0  0  0  0
  8 10  1  0  0  0  0
  9  8  1  0  0  0  0
 11 13  1  0  0  0  0
 11 14  1  0  0  0  0
 11  8  1  0  0  0  0
 12 11  1  0  0  0  0
M  END
$$$$
Title Card Required
 OpenBabel06272217483D

 14 13  0  0  0  0  0  0  0  0999 V2000
   -2.0295   -1.6920    0.6031 C   0  0  0  0  0  0  0  0  0  0  0  0
   -1.6366   -2.8156    0.2432 H   0  0  0  0  0  0  0  0  0  0  0  0
   -2.1486   -1.9426    1.6503 H   0  0  0  0  0  0  0  0  0  0  0  0
   -3.2265   -1.4139   -0.2177 C   0  0  0  0  0  0  0  0  0  0  0  0
   -4.1753   -1.6912    0.1592 H   0  0  0  0  0  0  0  0  0  0  0  0
   -3.1350   -2.0588   -1.2593 H   0  0  0  0  0  0  0  0  0  0  0  0
    2.1153    0.6086    0.0028 Br  0  0  0  0  0 15  0  0  0  0  0  0
   -1.1050   -0.5487    0.3382 C   0  0  0  0  0  0  0  0  0  0  0  0
   -0.0875   -0.8668   -0.2202 H   0  0  0  0  0  0  0  0  0  0  0  0
   -0.8587   -0.4876    1.3536 H   0  0  0  0  0  0  0  0  0  0  0  0
   -1.8917    0.4191   -0.5373 C   0  0  0  0  0  0  0  0  0  0  0  0
   -1.6652    0.0118   -1.6565 H   0  0  0  0  0  0  0  0  0  0  0  0
   -1.3972    1.4839   -0.5158 H   0  0  0  0  0  0  0  0  0  0  0  0
   -3.2936   -0.0483   -0.1381 O   0  0  0  0  0  0  0  0  0  0  0  0
  1  3  1  0  0  0  0
  2  1  1  0  0  0  0
  4 14  1  0  0  0  0
  4  5  1  0  0  0  0
  4  1  1  0  0  0  0
  6  4  1  0  0  0  0
  8  1  1  0  0  0  0
  8 10  1  0  0  0  0
  9  8  1  0  0  0  0
 11 13  1  0  0  0  0
 11 14  1  0  0  0  0
 11  8  1  0  0  0  0
 12 11  1  0  0  0  0
M  END
$$$$
Title Card Required
 OpenBabel06272217483D

 14 13  0  0  0  0  0  0  0  0999 V2000
   -2.0202   -1.6940    0.5925 C   0  0  0  0  0  0  0  0  0  0  0  0
   -1.6015   -2.8615    0.3189 H   0  0  0  0  0  0  0  0  0  0  0  0
   -2.0970   -1.9365    1.6846 H   0  0  0  0  0  0  0  0  0  0  0  0
   -3.2387   -1.4060   -0.2117 C   0  0  0  0  0  0  0  0  0  0  0  0
   -4.1651   -1.7205    0.1635 H   0  0  0  0  0  0  0  0  0  0  0  0
   -3.2439   -2.0777   -1.2418 H   0  0  0  0  0  0  0  0  0  0  0  0
    2.1140    0.6097    0.0042 Br  0  0  0  0  0 15  0  0  0  0  0  0
   -1.1201   -0.5685    0.3127 C   0  0  0  0  0  0  0  0  0  0  0  0
   -0.0632   -0.8597   -0.1781 H   0  0  0  0  0  0  0  0  0  0  0  0
   -0.9109   -0.4689    1.3502 H   0  0  0  0  0  0  0  0  0  0  0  0
   -1.8822    0.4331   -0.5325 C   0  0  0  0  0  0  0  0  0  0  0  0
   -1.7130   -0.0006   -1.5998 H   0  0  0  0  0  0  0  0  0  0  0  0
   -1.3776    1.4895   -0.5715 H   0  0  0  0  0  0  0  0  0  0  0  0
   -3.2765   -0.0493   -0.1368 O   0  0  0  0  0  0  0  0  0  0  0  0
  1  3  1  0  0  0  0
  2  1  1  0  0  0  0
  4 14  1  0  0  0  0
  4  5  1  0  0  0  0
  4  1  1  0  0  0  0
  6  4  1  0  0  0  0
  8  1  1  0  0  0  0
  8 10  1  0  0  0  0
  9  8  1  0  0  0  0
 11 14  1  0  0  0  0
 11  8  1  0  0  0  0
 12 11  1  0  0  0  0
 13 11  1  0  0  0  0
M  END
$$$$
Title Card Required
 OpenBabel06272217483D

 14 13  0  0  0  0  0  0  0  0999 V2000
   -2.0100   -1.7057    0.5817 C   0  0  0  0  0  0  0  0  0  0  0  0
   -1.5779   -2.8600    0.3945 H   0  0  0  0  0  0  0  0  0  0  0  0
   -2.0596   -1.9171    1.7107 H   0  0  0  0  0  0  0  0  0  0  0  0
   -3.2504   -1.4008   -0.2072 C   0  0  0  0  0  0  0  0  0  0  0  0
   -4.1802   -1.7610    0.1866 H   0  0  0  0  0  0  0  0  0  0  0  0
   -3.3430   -2.0590   -1.2042 H   0  0  0  0  0  0  0  0  0  0  0  0
    2.1127    0.6107    0.0055 Br  0  0  0  0  0 15  0  0  0  0  0  0
   -1.1292   -0.5893    0.2863 C   0  0  0  0  0  0  0  0  0  0  0  0
   -0.0737   -0.8406   -0.1202 H   0  0  0  0  0  0  0  0  0  0  0  0
   -0.9441   -0.4110    1.3598 H   0  0  0  0  0  0  0  0  0  0  0  0
   -1.8722    0.4437   -0.5289 C   0  0  0  0  0  0  0  0  0  0  0  0
   -1.7673    0.0028   -1.5259 H   0  0  0  0  0  0  0  0  0  0  0  0
   -1.3905    1.4744   -0.6139 H   0  0  0  0  0  0  0  0  0  0  0  0
   -3.2593   -0.0461   -0.1380 O   0  0  0  0  0  0  0  0  0  0  0  0
  1  3  1  0  0  0  0
  2  1  1  0  0  0  0
  4 14  1  0  0  0  0
  4  5  1  0  0  0  0
  4  1  1  0  0  0  0
  6  4  1  0  0  0  0
  8  1  1  0  0  0  0
  8 10  1  0  0  0  0
  9  8  1  0  0  0  0
 11 14  1  0  0  0  0
 11  8  1  0  0  0  0
 12 11  1  0  0  0  0
 13 11  1  0  0  0  0
M  END
$$$$
Title Card Required
 OpenBabel06272217483D

 14 13  0  0  0  0  0  0  0  0999 V2000
   -1.9999   -1.7254    0.5723 C   0  0  0  0  0  0  0  0  0  0  0  0
   -1.5659   -2.8199    0.4589 H   0  0  0  0  0  0  0  0  0  0  0  0
   -2.0390   -1.8850    1.7182 H   0  0  0  0  0  0  0  0  0  0  0  0
   -3.2621   -1.3985   -0.2034 C   0  0  0  0  0  0  0  0  0  0  0  0
   -4.2074   -1.8010    0.2250 H   0  0  0  0  0  0  0  0  0  0  0  0
   -3.4232   -2.0114   -1.1583 H   0  0  0  0  0  0  0  0  0  0  0  0
    2.1115    0.6118    0.0068 Br  0  0  0  0  0 15  0  0  0  0  0  0
   -1.1323   -0.6084    0.2629 C   0  0  0  0  0  0  0  0  0  0  0  0
   -0.1056   -0.8155   -0.0594 H   0  0  0  0  0  0  0  0  0  0  0  0
   -0.9634   -0.3275    1.3614 H   0  0  0  0  0  0  0  0  0  0  0  0
   -1.8630    0.4498   -0.5258 C   0  0  0  0  0  0  0  0  0  0  0  0
   -1.8190    0.0131   -1.4654 H   0  0  0  0  0  0  0  0  0  0  0  0
   -1.4271    1.4503   -0.6394 H   0  0  0  0  0  0  0  0  0  0  0  0
   -3.2433   -0.0394   -0.1409 O   0  0  0  0  0  0  0  0  0  0  0  0
  1  3  1  0  0  0  0
  2  1  1  0  0  0  0
  4 14  1  0  0  0  0
  4  5  1  0  0  0  0
  4  1  1  0  0  0  0
  6  4  1  0  0  0  0
  8  1  1  0  0  0  0
  8 10  1  0  0  0  0
  9  8  1  0  0  0  0
 11 14  1  0  0  0  0
 11  8  1  0  0  0  0
 12 11  1  0  0  0  0
 13 11  1  0  0  0  0
M  END
$$$$
Title Card Required
 OpenBabel06272217483D

 14 13  0  0  0  0  0  0  0  0999 V2000
   -1.9902   -1.7519    0.5646 C   0  0  0  0  0  0  0  0  0  0  0  0
   -1.5609   -2.7564    0.5081 H   0  0  0  0  0  0  0  0  0  0  0  0
   -2.0348   -1.8412    1.7066 H   0  0  0  0  0  0  0  0  0  0  0  0
   -3.2748   -1.3986   -0.1983 C   0  0  0  0  0  0  0  0  0  0  0  0
   -4.2319   -1.8316    0.2743 H   0  0  0  0  0  0  0  0  0  0  0  0
   -3.4862   -1.9445   -1.1165 H   0  0  0  0  0  0  0  0  0  0  0  0
    2.1103    0.6128    0.0080 Br  0  0  0  0  0 15  0  0  0  0  0  0
   -1.1310   -0.6249    0.2438 C   0  0  0  0  0  0  0  0  0  0  0  0
   -0.1366   -0.7908   -0.0050 H   0  0  0  0  0  0  0  0  0  0  0  0
   -0.9753   -0.2288    1.3406 H   0  0  0  0  0  0  0  0  0  0  0  0
   -1.8553    0.4511   -0.5214 C   0  0  0  0  0  0  0  0  0  0  0  0
   -1.8651    0.0201   -1.4445 H   0  0  0  0  0  0  0  0  0  0  0  0
   -1.4779    1.4323   -0.6489 H   0  0  0  0  0  0  0  0  0  0  0  0
   -3.2282   -0.0293   -0.1449 O   0  0  0  0  0  0  0  0  0  0  0  0
  1  3  1  0  0  0  0
  2  1  1  0  0  0  0
  4 14  1  0  0  0  0
  4  5  1  0  0  0  0
  4  1  1  0  0  0  0
  6  4  1  0  0  0  0
  8  1  1  0  0  0  0
  8 10  1  0  0  0  0
  9  8  1  0  0  0  0
 11 14  1  0  0  0  0
 11  8  1  0  0  0  0
 12 11  1  0  0  0  0
 13 11  1  0  0  0  0
M  END
$$$$
Title Card Required
 OpenBabel06272217483D

 14 13  0  0  0  0  0  0  0  0999 V2000
   -1.9816   -1.7824    0.5585 C   0  0  0  0  0  0  0  0  0  0  0  0
   -1.5523   -2.6981    0.5370 H   0  0  0  0  0  0  0  0  0  0  0  0
   -2.0480   -1.7866    1.6787 H   0  0  0  0  0  0  0  0  0  0  0  0
   -3.2893   -1.4006   -0.1900 C   0  0  0  0  0  0  0  0  0  0  0  0
   -4.2432   -1.8458    0.3313 H   0  0  0  0  0  0  0  0  0  0  0  0
   -3.5345   -1.8691   -1.0965 H   0  0  0  0  0  0  0  0  0  0  0  0
    2.1091    0.6139    0.0093 Br  0  0  0  0  0 15  0  0  0  0  0  0
   -1.1272   -0.6378    0.2302 C   0  0  0  0  0  0  0  0  0  0  0  0
   -0.1385   -0.7723    0.0340 H   0  0  0  0  0  0  0  0  0  0  0  0
   -0.9832   -0.1243    1.2905 H   0  0  0  0  0  0  0  0  0  0  0  0
   -1.8496    0.4462   -0.5156 C   0  0  0  0  0  0  0  0  0  0  0  0
   -1.9039    0.0203   -1.4765 H   0  0  0  0  0  0  0  0  0  0  0  0
   -1.5358    1.4366   -0.6426 H   0  0  0  0  0  0  0  0  0  0  0  0
   -3.2142   -0.0160   -0.1495 O   0  0  0  0  0  0  0  0  0  0  0  0
  1  3  1  0  0  0  0
  2  1  1  0  0  0  0
  4 14  1  0  0  0  0
  4  5  1  0  0  0  0
  4  1  1  0  0  0  0
  6  4  1  0  0  0  0
  8  1  1  0  0  0  0
  8 10  1  0  0  0  0
  9  8  1  0  0  0  0
 11 14  1  0  0  0  0
 11  8  1  0  0  0  0
 12 11  1  0  0  0  0
 13 11  1  0  0  0  0
M  END
$$$$
Title Card Required
 OpenBabel06272217483D

 14 13  0  0  0  0  0  0  0  0999 V2000
   -1.9761   -1.8110    0.5538 C   0  0  0  0  0  0  0  0  0  0  0  0
   -1.5229   -2.6898    0.5416 H   0  0  0  0  0  0  0  0  0  0  0  0
   -2.0781   -1.7265    1.6429 H   0  0  0  0  0  0  0  0  0  0  0  0
   -3.3045   -1.4033   -0.1771 C   0  0  0  0  0  0  0  0  0  0  0  0
   -4.2356   -1.8390    0.3891 H   0  0  0  0  0  0  0  0  0  0  0  0
   -3.5702   -1.7997   -1.1139 H   0  0  0  0  0  0  0  0  0  0  0  0
    2.1079    0.6150    0.0105 Br  0  0  0  0  0 15  0  0  0  0  0  0
   -1.1223   -0.6456    0.2229 C   0  0  0  0  0  0  0  0  0  0  0  0
   -0.0966   -0.7634    0.0518 H   0  0  0  0  0  0  0  0  0  0  0  0
   -0.9887   -0.0295    1.2156 H   0  0  0  0  0  0  0  0  0  0  0  0
   -1.8468    0.4339   -0.5108 C   0  0  0  0  0  0  0  0  0  0  0  0
   -1.9311    0.0222   -1.5453 H   0  0  0  0  0  0  0  0  0  0  0  0
   -1.5938    1.4680   -0.6206 H   0  0  0  0  0  0  0  0  0  0  0  0
   -3.2020   -0.0005   -0.1539 O   0  0  0  0  0  0  0  0  0  0  0  0
  1  3  1  0  0  0  0
  2  1  1  0  0  0  0
  4 14  1  0  0  0  0
  4  5  1  0  0  0  0
  4  1  1  0  0  0  0
  6  4  1  0  0  0  0
  8  1  1  0  0  0  0
  8 10  1  0  0  0  0
  9  8  1  0  0  0  0
 11 14  1  0  0  0  0
 11  8  1  0  0  0  0
 12 11  1  0  0  0  0
 13 11  1  0  0  0  0
M  END
$$$$
Title Card Required
 OpenBabel06272217483D

 14 13  0  0  0  0  0  0  0  0999 V2000
   -1.9740   -1.8336    0.5500 C   0  0  0  0  0  0  0  0  0  0  0  0
   -1.4717   -2.7395    0.5266 H   0  0  0  0  0  0  0  0  0  0  0  0
   -2.1192   -1.6702    1.6107 H   0  0  0  0  0  0  0  0  0  0  0  0
   -3.3190   -1.4059   -0.1614 C   0  0  0  0  0  0  0  0  0  0  0  0
   -4.2120   -1.8142    0.4401 H   0  0  0  0  0  0  0  0  0  0  0  0
   -3.5943   -1.7429   -1.1596 H   0  0  0  0  0  0  0  0  0  0  0  0
    2.1068    0.6160    0.0117 Br  0  0  0  0  0 15  0  0  0  0  0  0
   -1.1157   -0.6487    0.2209 C   0  0  0  0  0  0  0  0  0  0  0  0
   -0.0335   -0.7617    0.0527 H   0  0  0  0  0  0  0  0  0  0  0  0
   -0.9923    0.0425    1.1331 H   0  0  0  0  0  0  0  0  0  0  0  0
   -1.8469    0.4164   -0.5099 C   0  0  0  0  0  0  0  0  0  0  0  0
   -1.9437    0.0352   -1.6176 H   0  0  0  0  0  0  0  0  0  0  0  0
   -1.6480    1.5083   -0.5859 H   0  0  0  0  0  0  0  0  0  0  0  0
   -3.1923    0.0151   -0.1575 O   0  0  0  0  0  0  0  0  0  0  0  0
  1  3  1  0  0  0  0
  2  1  1  0  0  0  0
  4 14  1  0  0  0  0
  4  5  1  0  0  0  0
  4  1  1  0  0  0  0
  6  4  1  0  0  0  0
  8  1  1  0  0  0  0
  8 10  1  0  0  0  0
  9  8  1  0  0  0  0
 11 14  1  0  0  0  0
 11  8  1  0  0  0  0
 12 11  1  0  0  0  0
 13 11  1  0  0  0  0
M  END
$$$$
Title Card Required
 OpenBabel06272217483D

 14 13  0  0  0  0  0  0  0  0999 V2000
   -1.9738   -1.8525    0.5462 C   0  0  0  0  0  0  0  0  0  0  0  0
   -1.4134   -2.8163    0.4993 H   0  0  0  0  0  0  0  0  0  0  0  0
   -2.1681   -1.6200    1.5860 H   0  0  0  0  0  0  0  0  0  0  0  0
   -3.3329   -1.4082   -0.1446 C   0  0  0  0  0  0  0  0  0  0  0  0
   -4.1785   -1.7757    0.4855 H   0  0  0  0  0  0  0  0  0  0  0  0
   -3.6082   -1.6930   -1.2135 H   0  0  0  0  0  0  0  0  0  0  0  0
    2.1058    0.6171    0.0128 Br  0  0  0  0  0 15  0  0  0  0  0  0
   -1.1059   -0.6484    0.2221 C   0  0  0  0  0  0  0  0  0  0  0  0
    0.0268   -0.7629    0.0434 H   0  0  0  0  0  0  0  0  0  0  0  0
   -0.9935    0.0943    1.0534 H   0  0  0  0  0  0  0  0  0  0  0  0
   -1.8496    0.3956   -0.5142 C   0  0  0  0  0  0  0  0  0  0  0  0
   -1.9429    0.0621   -1.6789 H   0  0  0  0  0  0  0  0  0  0  0  0
   -1.7007    1.5394   -0.5398 H   0  0  0  0  0  0  0  0  0  0  0  0
   -3.1845    0.0307   -0.1600 O   0  0  0  0  0  0  0  0  0  0  0  0
  1  3  1  0  0  0  0
  2  1  1  0  0  0  0
  4  5  1  0  0  0  0
  4  1  1  0  0  0  0
  6  4  1  0  0  0  0
  8  1  1  0  0  0  0
  8 10  1  0  0  0  0
  9  8  1  0  0  0  0
 11 14  1  0  0  0  0
 11  8  1  0  0  0  0
 12 11  1  0  0  0  0
 13 11  1  0  0  0  0
 14  4  1  0  0  0  0
M  END
$$$$
Title Card Required
 OpenBabel06272217483D

 14 13  0  0  0  0  0  0  0  0999 V2000
   -1.9740   -1.8708    0.5419 C   0  0  0  0  0  0  0  0  0  0  0  0
   -1.3628   -2.8931    0.4633 H   0  0  0  0  0  0  0  0  0  0  0  0
   -2.2243   -1.5776    1.5681 H   0  0  0  0  0  0  0  0  0  0  0  0
   -3.3467   -1.4100   -0.1275 C   0  0  0  0  0  0  0  0  0  0  0  0
   -4.1413   -1.7251    0.5303 H   0  0  0  0  0  0  0  0  0  0  0  0
   -3.6119   -1.6447   -1.2593 H   0  0  0  0  0  0  0  0  0  0  0  0
    2.1047    0.6181    0.0139 Br  0  0  0  0  0 15  0  0  0  0  0  0
   -1.0911   -0.6459    0.2253 C   0  0  0  0  0  0  0  0  0  0  0  0
    0.0709   -0.7649    0.0266 H   0  0  0  0  0  0  0  0  0  0  0  0
   -0.9907    0.1308    0.9841 H   0  0  0  0  0  0  0  0  0  0  0  0
   -1.8550    0.3719   -0.5250 C   0  0  0  0  0  0  0  0  0  0  0  0
   -1.9290    0.1046   -1.7243 H   0  0  0  0  0  0  0  0  0  0  0  0
   -1.7542    1.5485   -0.4810 H   0  0  0  0  0  0  0  0  0  0  0  0
   -3.1780    0.0469   -0.1615 O   0  0  0  0  0  0  0  0  0  0  0  0
  1  3  1  0  0  0  0
  2  1  1  0  0  0  0
  4  5  1  0  0  0  0
  4  1  1  0  0  0  0
  6  4  1  0  0  0  0
  8  1  1  0  0  0  0
  8 10  1  0  0  0  0
  9  8  1  0  0  0  0
 11 13  1  0  0  0  0
 11 14  1  0  0  0  0
 11  8  1  0  0  0  0
 12 11  1  0  0  0  0
 14  4  1  0  0  0  0
M  END
$$$$
Title Card Required
 OpenBabel06272217483D

 14 13  0  0  0  0  0  0  0  0999 V2000
   -1.9735   -1.8898    0.5370 C   0  0  0  0  0  0  0  0  0  0  0  0
   -1.3352   -2.9474    0.4222 H   0  0  0  0  0  0  0  0  0  0  0  0
   -2.2845   -1.5504    1.5554 H   0  0  0  0  0  0  0  0  0  0  0  0
   -3.3597   -1.4104   -0.1122 C   0  0  0  0  0  0  0  0  0  0  0  0
   -4.1129   -1.6655    0.5814 H   0  0  0  0  0  0  0  0  0  0  0  0
   -3.6048   -1.5982   -1.2797 H   0  0  0  0  0  0  0  0  0  0  0  0
    2.1036    0.6193    0.0152 Br  0  0  0  0  0 15  0  0  0  0  0  0
   -1.0698   -0.6417    0.2293 C   0  0  0  0  0  0  0  0  0  0  0  0
    0.0868   -0.7662    0.0030 H   0  0  0  0  0  0  0  0  0  0  0  0
   -0.9804    0.1549    0.9404 H   0  0  0  0  0  0  0  0  0  0  0  0
   -1.8638    0.3456   -0.5442 C   0  0  0  0  0  0  0  0  0  0  0  0
   -1.9008    0.1639   -1.7463 H   0  0  0  0  0  0  0  0  0  0  0  0
   -1.8063    1.5224   -0.4101 H   0  0  0  0  0  0  0  0  0  0  0  0
   -3.1726    0.0637   -0.1616 O   0  0  0  0  0  0  0  0  0  0  0  0
  1  3  1  0  0  0  0
  2  1  1  0  0  0  0
  4  1  1  0  0  0  0
  4  5  1  0  0  0  0
  6  4  1  0  0  0  0
  8  1  1  0  0  0  0
  8 10  1  0  0  0  0
  9  8  1  0  0  0  0
 11 13  1  0  0  0  0
 11 14  1  0  0  0  0
 11  8  1  0  0  0  0
 12 11  1  0  0  0  0
 14  4  1  0  0  0  0
M  END
$$$$
Title Card Required
 OpenBabel06272217483D

 14 13  0  0  0  0  0  0  0  0999 V2000
   -1.9721   -1.9076    0.5322 C   0  0  0  0  0  0  0  0  0  0  0  0
   -1.3439   -2.9603    0.3835 H   0  0  0  0  0  0  0  0  0  0  0  0
   -2.3363   -1.5494    1.5447 H   0  0  0  0  0  0  0  0  0  0  0  0
   -3.3697   -1.4083   -0.1014 C   0  0  0  0  0  0  0  0  0  0  0  0
   -4.1079   -1.6064    0.6400 H   0  0  0  0  0  0  0  0  0  0  0  0
   -3.5896   -1.5610   -1.2604 H   0  0  0  0  0  0  0  0  0  0  0  0
    2.1024    0.6206    0.0165 Br  0  0  0  0  0 15  0  0  0  0  0  0
   -1.0434   -0.6373    0.2327 C   0  0  0  0  0  0  0  0  0  0  0  0
    0.0684   -0.7665   -0.0249 H   0  0  0  0  0  0  0  0  0  0  0  0
   -0.9606    0.1675    0.9393 H   0  0  0  0  0  0  0  0  0  0  0  0
   -1.8753    0.3200   -0.5708 C   0  0  0  0  0  0  0  0  0  0  0  0
   -1.8613    0.2322   -1.7394 H   0  0  0  0  0  0  0  0  0  0  0  0
   -1.8473    1.4580   -0.3370 H   0  0  0  0  0  0  0  0  0  0  0  0
   -3.1692    0.0789   -0.1601 O   0  0  0  0  0  0  0  0  0  0  0  0
  1  3  1  0  0  0  0
  2  1  1  0  0  0  0
  4  1  1  0  0  0  0
  4  5  1  0  0  0  0
  6  4  1  0  0  0  0
  8  1  1  0  0  0  0
  8 10  1  0  0  0  0
  9  8  1  0  0  0  0
 11 13  1  0  0  0  0
 11 14  1  0  0  0  0
 11  8  1  0  0  0  0
 12 11  1  0  0  0  0
 14  4  1  0  0  0  0
M  END
$$$$
Title Card Required
 OpenBabel06272217483D

 14 13  0  0  0  0  0  0  0  0999 V2000
   -1.9702   -1.9220    0.5282 C   0  0  0  0  0  0  0  0  0  0  0  0
   -1.3856   -2.9340    0.3534 H   0  0  0  0  0  0  0  0  0  0  0  0
   -2.3683   -1.5767    1.5342 H   0  0  0  0  0  0  0  0  0  0  0  0
   -3.3759   -1.4038   -0.0955 C   0  0  0  0  0  0  0  0  0  0  0  0
   -4.1234   -1.5549    0.6950 H   0  0  0  0  0  0  0  0  0  0  0  0
   -3.5737   -1.5396   -1.2083 H   0  0  0  0  0  0  0  0  0  0  0  0
    2.1014    0.6218    0.0177 Br  0  0  0  0  0 15  0  0  0  0  0  0
   -1.0164   -0.6332    0.2349 C   0  0  0  0  0  0  0  0  0  0  0  0
    0.0292   -0.7677   -0.0552 H   0  0  0  0  0  0  0  0  0  0  0  0
   -0.9339    0.1668    0.9758 H   0  0  0  0  0  0  0  0  0  0  0  0
   -1.8871    0.2979   -0.6000 C   0  0  0  0  0  0  0  0  0  0  0  0
   -1.8185    0.2963   -1.7138 H   0  0  0  0  0  0  0  0  0  0  0  0
   -1.8693    1.3730   -0.2742 H   0  0  0  0  0  0  0  0  0  0  0  0
   -3.1681    0.0908   -0.1574 O   0  0  0  0  0  0  0  0  0  0  0  0
  1  3  1  0  0  0  0
  2  1  1  0  0  0  0
  4  1  1  0  0  0  0
  4  5  1  0  0  0  0
  6  4  1  0  0  0  0
  8  1  1  0  0  0  0
  8 10  1  0  0  0  0
  9  8  1  0  0  0  0
 11 13  1  0  0  0  0
 11 14  1  0  0  0  0
 11  8  1  0  0  0  0
 12 11  1  0  0  0  0
 14  4  1  0  0  0  0
M  END
$$$$
Title Card Required
 OpenBabel06272217483D

 14 13  0  0  0  0  0  0  0  0999 V2000
   -1.9684   -1.9325    0.5249 C   0  0  0  0  0  0  0  0  0  0  0  0
   -1.4499   -2.8847    0.3304 H   0  0  0  0  0  0  0  0  0  0  0  0
   -2.3797   -1.6288    1.5240 H   0  0  0  0  0  0  0  0  0  0  0  0
   -3.3796   -1.3969   -0.0916 C   0  0  0  0  0  0  0  0  0  0  0  0
   -4.1470   -1.5095    0.7357 H   0  0  0  0  0  0  0  0  0  0  0  0
   -3.5630   -1.5352   -1.1411 H   0  0  0  0  0  0  0  0  0  0  0  0
    2.1004    0.6230    0.0189 Br  0  0  0  0  0 15  0  0  0  0  0  0
   -0.9913   -0.6291    0.2365 C   0  0  0  0  0  0  0  0  0  0  0  0
   -0.0089   -0.7731   -0.0909 H   0  0  0  0  0  0  0  0  0  0  0  0
   -0.9022    0.1493    1.0343 H   0  0  0  0  0  0  0  0  0  0  0  0
   -1.8984    0.2787   -0.6293 C   0  0  0  0  0  0  0  0  0  0  0  0
   -1.7755    0.3525   -1.6879 H   0  0  0  0  0  0  0  0  0  0  0  0
   -1.8712    1.2853   -0.2225 H   0  0  0  0  0  0  0  0  0  0  0  0
   -3.1689    0.0994   -0.1538 O   0  0  0  0  0  0  0  0  0  0  0  0
  1  3  1  0  0  0  0
  2  1  1  0  0  0  0
  4  1  1  0  0  0  0
  4  5  1  0  0  0  0
  6  4  1  0  0  0  0
  8  1  1  0  0  0  0
  8 10  1  0  0  0  0
  9  8  1  0  0  0  0
 11 13  1  0  0  0  0
 11 14  1  0  0  0  0
 11  8  1  0  0  0  0
 12 11  1  0  0  0  0
 14  4  1  0  0  0  0
M  END
$$$$
Title Card Required
 OpenBabel06272217483D

 14 13  0  0  0  0  0  0  0  0999 V2000
   -1.9678   -1.9378    0.5220 C   0  0  0  0  0  0  0  0  0  0  0  0
   -1.5267   -2.8345    0.3083 H   0  0  0  0  0  0  0  0  0  0  0  0
   -2.3703   -1.7068    1.5172 H   0  0  0  0  0  0  0  0  0  0  0  0
   -3.3814   -1.3869   -0.0863 C   0  0  0  0  0  0  0  0  0  0  0  0
   -4.1700   -1.4676    0.7545 H   0  0  0  0  0  0  0  0  0  0  0  0
   -3.5635   -1.5515   -1.0802 H   0  0  0  0  0  0  0  0  0  0  0  0
    2.0994    0.6242    0.0201 Br  0  0  0  0  0 15  0  0  0  0  0  0
   -0.9689   -0.6243    0.2384 C   0  0  0  0  0  0  0  0  0  0  0  0
   -0.0253   -0.7871   -0.1402 H   0  0  0  0  0  0  0  0  0  0  0  0
   -0.8649    0.1081    1.1044 H   0  0  0  0  0  0  0  0  0  0  0  0
   -1.9089    0.2606   -0.6576 C   0  0  0  0  0  0  0  0  0  0  0  0
   -1.7310    0.4024   -1.6809 H   0  0  0  0  0  0  0  0  0  0  0  0
   -1.8500    1.2072   -0.1782 H   0  0  0  0  0  0  0  0  0  0  0  0
   -3.1719    0.1051   -0.1495 O   0  0  0  0  0  0  0  0  0  0  0  0
  1  3  1  0  0  0  0
  2  1  1  0  0  0  0
  4  1  1  0  0  0  0
  4  5  1  0  0  0  0
  6  4  1  0  0  0  0
  8  1  1  0  0  0  0
  8 10  1  0  0  0  0
  9  8  1  0  0  0  0
 11 13  1  0  0  0  0
 11 14  1  0  0  0  0
 11  8  1  0  0  0  0
 12 11  1  0  0  0  0
 14  4  1  0  0  0  0
M  END
$$$$
Title Card Required
 OpenBabel06272217483D

 14 13  0  0  0  0  0  0  0  0999 V2000
   -1.9698   -1.9344    0.5197 C   0  0  0  0  0  0  0  0  0  0  0  0
   -1.5959   -2.8239    0.2764 H   0  0  0  0  0  0  0  0  0  0  0  0
   -2.3406   -1.8076    1.5213 H   0  0  0  0  0  0  0  0  0  0  0  0
   -3.3812   -1.3732   -0.0762 C   0  0  0  0  0  0  0  0  0  0  0  0
   -4.1859   -1.4316    0.7440 H   0  0  0  0  0  0  0  0  0  0  0  0
   -3.5826   -1.5945   -1.0556 H   0  0  0  0  0  0  0  0  0  0  0  0
    2.0985    0.6255    0.0213 Br  0  0  0  0  0 15  0  0  0  0  0  0
   -0.9513   -0.6188    0.2412 C   0  0  0  0  0  0  0  0  0  0  0  0
   -0.0081   -0.8118   -0.2054 H   0  0  0  0  0  0  0  0  0  0  0  0
   -0.8228    0.0390    1.1723 H   0  0  0  0  0  0  0  0  0  0  0  0
   -1.9176    0.2435   -0.6824 C   0  0  0  0  0  0  0  0  0  0  0  0
   -1.6867    0.4444   -1.7065 H   0  0  0  0  0  0  0  0  0  0  0  0
   -1.8019    1.1551   -0.1415 H   0  0  0  0  0  0  0  0  0  0  0  0
   -3.1772    0.1071   -0.1451 O   0  0  0  0  0  0  0  0  0  0  0  0
  1  3  1  0  0  0  0
  2  1  1  0  0  0  0
  4  1  1  0  0  0  0
  4  5  1  0  0  0  0
  6  4  1  0  0  0  0
  8  1  1  0  0  0  0
  8 10  1  0  0  0  0
  9  8  1  0  0  0  0
 11 14  1  0  0  0  0
 11 13  1  0  0  0  0
 11  8  1  0  0  0  0
 12 11  1  0  0  0  0
 14  4  1  0  0  0  0
M  END
$$$$
Title Card Required
 OpenBabel06272217483D

 14 13  0  0  0  0  0  0  0  0999 V2000
   -1.9746   -1.9226    0.5180 C   0  0  0  0  0  0  0  0  0  0  0  0
   -1.6426   -2.8673    0.2306 H   0  0  0  0  0  0  0  0  0  0  0  0
   -2.2993   -1.9132    1.5417 H   0  0  0  0  0  0  0  0  0  0  0  0
   -3.3794   -1.3575   -0.0625 C   0  0  0  0  0  0  0  0  0  0  0  0
   -4.1925   -1.4069    0.7108 H   0  0  0  0  0  0  0  0  0  0  0  0
   -3.6159   -1.6563   -1.0683 H   0  0  0  0  0  0  0  0  0  0  0  0
    2.0976    0.6268    0.0225 Br  0  0  0  0  0 15  0  0  0  0  0  0
   -0.9393   -0.6145    0.2441 C   0  0  0  0  0  0  0  0  0  0  0  0
    0.0243   -0.8407   -0.2701 H   0  0  0  0  0  0  0  0  0  0  0  0
   -0.7821   -0.0452    1.2212 H   0  0  0  0  0  0  0  0  0  0  0  0
   -1.9230    0.2298   -0.7006 C   0  0  0  0  0  0  0  0  0  0  0  0
   -1.6511    0.4726   -1.7508 H   0  0  0  0  0  0  0  0  0  0  0  0
   -1.7361    1.1342   -0.1187 H   0  0  0  0  0  0  0  0  0  0  0  0
   -3.1838    0.1055   -0.1414 O   0  0  0  0  0  0  0  0  0  0  0  0
  1  3  1  0  0  0  0
  2  1  1  0  0  0  0
  4  1  1  0  0  0  0
  4  5  1  0  0  0  0
  6  4  1  0  0  0  0
  8  1  1  0  0  0  0
  8 10  1  0  0  0  0
  9  8  1  0  0  0  0
 11 14  1  0  0  0  0
 11 13  1  0  0  0  0
 11  8  1  0  0  0  0
 12 11  1  0  0  0  0
 14  4  1  0  0  0  0
M  END
$$$$
Title Card Required
 OpenBabel06272217483D

 14 13  0  0  0  0  0  0  0  0999 V2000
   -1.9806   -1.9062    0.5164 C   0  0  0  0  0  0  0  0  0  0  0  0
   -1.6795   -2.9326    0.1758 H   0  0  0  0  0  0  0  0  0  0  0  0
   -2.2506   -2.0188    1.5750 H   0  0  0  0  0  0  0  0  0  0  0  0
   -3.3765   -1.3406   -0.0478 C   0  0  0  0  0  0  0  0  0  0  0  0
   -4.1956   -1.3926    0.6674 H   0  0  0  0  0  0  0  0  0  0  0  0
   -3.6543   -1.7257   -1.0891 H   0  0  0  0  0  0  0  0  0  0  0  0
    2.0968    0.6281    0.0235 Br  0  0  0  0  0 15  0  0  0  0  0  0
   -0.9305   -0.6124    0.2459 C   0  0  0  0  0  0  0  0  0  0  0  0
    0.0499   -0.8681   -0.3234 H   0  0  0  0  0  0  0  0  0  0  0  0
   -0.7427   -0.1361    1.2511 H   0  0  0  0  0  0  0  0  0  0  0  0
   -1.9251    0.2198   -0.7137 C   0  0  0  0  0  0  0  0  0  0  0  0
   -1.6273    0.4866   -1.7941 H   0  0  0  0  0  0  0  0  0  0  0  0
   -1.6609    1.1316   -0.1130 H   0  0  0  0  0  0  0  0  0  0  0  0
   -3.1912    0.1013   -0.1388 O   0  0  0  0  0  0  0  0  0  0  0  0
  1  3  1  0  0  0  0
  2  1  1  0  0  0  0
  4  1  1  0  0  0  0
  4  5  1  0  0  0  0
  6  4  1  0  0  0  0
  8  1  1  0  0  0  0
  8 10  1  0  0  0  0
  9  8  1  0  0  0  0
 11 14  1  0  0  0  0
 11 13  1  0  0  0  0
 11  8  1  0  0  0  0
 12 11  1  0  0  0  0
 14  4  1  0  0  0  0
M  END
$$$$
Title Card Required
 OpenBabel06272217483D

 14 13  0  0  0  0  0  0  0  0999 V2000
   -1.9874   -1.8878    0.5145 C   0  0  0  0  0  0  0  0  0  0  0  0
   -1.7196   -2.9896    0.1156 H   0  0  0  0  0  0  0  0  0  0  0  0
   -2.1911   -2.1279    1.6128 H   0  0  0  0  0  0  0  0  0  0  0  0
   -3.3726   -1.3223   -0.0333 C   0  0  0  0  0  0  0  0  0  0  0  0
   -4.2036   -1.3877    0.6231 H   0  0  0  0  0  0  0  0  0  0  0  0
   -3.6917   -1.7963   -1.0962 H   0  0  0  0  0  0  0  0  0  0  0  0
    2.0961    0.6294    0.0246 Br  0  0  0  0  0 15  0  0  0  0  0  0
   -0.9231   -0.6136    0.2458 C   0  0  0  0  0  0  0  0  0  0  0  0
    0.0577   -0.8921   -0.3608 H   0  0  0  0  0  0  0  0  0  0  0  0
   -0.7018   -0.2322    1.2657 H   0  0  0  0  0  0  0  0  0  0  0  0
   -1.9234    0.2139   -0.7230 C   0  0  0  0  0  0  0  0  0  0  0  0
   -1.6172    0.4843   -1.8255 H   0  0  0  0  0  0  0  0  0  0  0  0
   -1.5784    1.1371   -0.1293 H   0  0  0  0  0  0  0  0  0  0  0  0
   -3.1993    0.0947   -0.1375 O   0  0  0  0  0  0  0  0  0  0  0  0
  1  3  1  0  0  0  0
  2  1  1  0  0  0  0
  4  1  1  0  0  0  0
  4  5  1  0  0  0  0
  6  4  1  0  0  0  0
  8  1  1  0  0  0  0
  8 10  1  0  0  0  0
  9  8  1  0  0  0  0
 11 14  1  0  0  0  0
 11 13  1  0  0  0  0
 11  8  1  0  0  0  0
 12 11  1  0  0  0  0
 14  4  1  0  0  0  0
M  END
$$$$
Title Card Required
 OpenBabel06272217483D

 14 13  0  0  0  0  0  0  0  0999 V2000
   -1.9951   -1.8694    0.5127 C   0  0  0  0  0  0  0  0  0  0  0  0
   -1.7690   -3.0136    0.0544 H   0  0  0  0  0  0  0  0  0  0  0  0
   -2.1176   -2.2363    1.6400 H   0  0  0  0  0  0  0  0  0  0  0  0
   -3.3672   -1.3029   -0.0204 C   0  0  0  0  0  0  0  0  0  0  0  0
   -4.2266   -1.3939    0.5889 H   0  0  0  0  0  0  0  0  0  0  0  0
   -3.7211   -1.8595   -1.0741 H   0  0  0  0  0  0  0  0  0  0  0  0
    2.0953    0.6308    0.0258 Br  0  0  0  0  0 15  0  0  0  0  0  0
   -0.9168   -0.6201    0.2423 C   0  0  0  0  0  0  0  0  0  0  0  0
    0.0393   -0.9107   -0.3760 H   0  0  0  0  0  0  0  0  0  0  0  0
   -0.6575   -0.3281    1.2673 H   0  0  0  0  0  0  0  0  0  0  0  0
   -1.9171    0.2130   -0.7281 C   0  0  0  0  0  0  0  0  0  0  0  0
   -1.6251    0.4606   -1.8361 H   0  0  0  0  0  0  0  0  0  0  0  0
   -1.4943    1.1447   -0.1747 H   0  0  0  0  0  0  0  0  0  0  0  0
   -3.2078    0.0856   -0.1380 O   0  0  0  0  0  0  0  0  0  0  0  0
  1  3  1  0  0  0  0
  2  1  1  0  0  0  0
  4  1  1  0  0  0  0
  4  5  1  0  0  0  0
  6  4  1  0  0  0  0
  8  1  1  0  0  0  0
  8 10  1  0  0  0  0
  9  8  1  0  0  0  0
 11 13  1  0  0  0  0
 11 14  1  0  0  0  0
 11  8  1  0  0  0  0
 12 11  1  0  0  0  0
 14  4  1  0  0  0  0
M  END
$$$$
Title Card Required
 OpenBabel06272217483D

 14 13  0  0  0  0  0  0  0  0999 V2000
   -2.0026   -1.8546    0.5118 C   0  0  0  0  0  0  0  0  0  0  0  0
   -1.8250   -2.9872   -0.0003 H   0  0  0  0  0  0  0  0  0  0  0  0
   -2.0361   -2.3264    1.6386 H   0  0  0  0  0  0  0  0  0  0  0  0
   -3.3614   -1.2848   -0.0102 C   0  0  0  0  0  0  0  0  0  0  0  0
   -4.2656   -1.4109    0.5739 H   0  0  0  0  0  0  0  0  0  0  0  0
   -3.7336   -1.9017   -1.0179 H   0  0  0  0  0  0  0  0  0  0  0  0
    2.0945    0.6324    0.0270 Br  0  0  0  0  0 15  0  0  0  0  0  0
   -0.9125   -0.6329    0.2346 C   0  0  0  0  0  0  0  0  0  0  0  0
   -0.0051   -0.9234   -0.3669 H   0  0  0  0  0  0  0  0  0  0  0  0
   -0.6119   -0.4086    1.2595 H   0  0  0  0  0  0  0  0  0  0  0  0
   -1.9055    0.2182   -0.7278 C   0  0  0  0  0  0  0  0  0  0  0  0
   -1.6527    0.4129   -1.8221 H   0  0  0  0  0  0  0  0  0  0  0  0
   -1.4232    1.1505   -0.2487 H   0  0  0  0  0  0  0  0  0  0  0  0
   -3.2157    0.0753   -0.1408 O   0  0  0  0  0  0  0  0  0  0  0  0
  1  3  1  0  0  0  0
  2  1  1  0  0  0  0
  4  1  1  0  0  0  0
  4  5  1  0  0  0  0
  6  4  1  0  0  0  0
  8  1  1  0  0  0  0
  8 10  1  0  0  0  0
  9  8  1  0  0  0  0
 11 13  1  0  0  0  0
 11 14  1  0  0  0  0
 11  8  1  0  0  0  0
 12 11  1  0  0  0  0
 14  4  1  0  0  0  0
M  END
$$$$
Title Card Required
 OpenBabel06272217483D

 14 13  0  0  0  0  0  0  0  0999 V2000
   -2.0091   -1.8455    0.5118 C   0  0  0  0  0  0  0  0  0  0  0  0
   -1.8791   -2.9154   -0.0431 H   0  0  0  0  0  0  0  0  0  0  0  0
   -1.9591   -2.3836    1.6051 H   0  0  0  0  0  0  0  0  0  0  0  0
   -3.3571   -1.2705   -0.0021 C   0  0  0  0  0  0  0  0  0  0  0  0
   -4.3049   -1.4326    0.5749 H   0  0  0  0  0  0  0  0  0  0  0  0
   -3.7267   -1.9167   -0.9402 H   0  0  0  0  0  0  0  0  0  0  0  0
    2.0938    0.6339    0.0282 Br  0  0  0  0  0 15  0  0  0  0  0  0
   -0.9118   -0.6506    0.2240 C   0  0  0  0  0  0  0  0  0  0  0  0
   -0.0574   -0.9347   -0.3457 H   0  0  0  0  0  0  0  0  0  0  0  0
   -0.5693   -0.4622    1.2467 H   0  0  0  0  0  0  0  0  0  0  0  0
   -1.8905    0.2278   -0.7220 C   0  0  0  0  0  0  0  0  0  0  0  0
   -1.6937    0.3471   -1.7951 H   0  0  0  0  0  0  0  0  0  0  0  0
   -1.3757    1.1559   -0.3373 H   0  0  0  0  0  0  0  0  0  0  0  0
   -3.2217    0.0657   -0.1457 O   0  0  0  0  0  0  0  0  0  0  0  0
  1  3  1  0  0  0  0
  2  1  1  0  0  0  0
  4  1  1  0  0  0  0
  4  5  1  0  0  0  0
  6  4  1  0  0  0  0
  8  1  1  0  0  0  0
  8 10  1  0  0  0  0
  9  8  1  0  0  0  0
 11 13  1  0  0  0  0
 11 14  1  0  0  0  0
 11  8  1  0  0  0  0
 12 11  1  0  0  0  0
 14  4  1  0  0  0  0
M  END
$$$$
Title Card Required
 OpenBabel06272217483D

 14 13  0  0  0  0  0  0  0  0999 V2000
   -2.0140   -1.8413    0.5123 C   0  0  0  0  0  0  0  0  0  0  0  0
   -1.9267   -2.8153   -0.0771 H   0  0  0  0  0  0  0  0  0  0  0  0
   -1.8923   -2.4089    1.5482 H   0  0  0  0  0  0  0  0  0  0  0  0
   -3.3554   -1.2607    0.0056 C   0  0  0  0  0  0  0  0  0  0  0  0
   -4.3310   -1.4528    0.5843 H   0  0  0  0  0  0  0  0  0  0  0  0
   -3.7048   -1.9099   -0.8574 H   0  0  0  0  0  0  0  0  0  0  0  0
    2.0932    0.6353    0.0293 Br  0  0  0  0  0 15  0  0  0  0  0  0
   -0.9155   -0.6711    0.2127 C   0  0  0  0  0  0  0  0  0  0  0  0
   -0.0949   -0.9529   -0.3306 H   0  0  0  0  0  0  0  0  0  0  0  0
   -0.5313   -0.4900    1.2297 H   0  0  0  0  0  0  0  0  0  0  0  0
   -1.8735    0.2398   -0.7114 C   0  0  0  0  0  0  0  0  0  0  0  0
   -1.7405    0.2686   -1.7722 H   0  0  0  0  0  0  0  0  0  0  0  0
   -1.3499    1.1663   -0.4280 H   0  0  0  0  0  0  0  0  0  0  0  0
   -3.2257    0.0579   -0.1523 O   0  0  0  0  0  0  0  0  0  0  0  0
  1  3  1  0  0  0  0
  2  1  1  0  0  0  0
  4  1  1  0  0  0  0
  4  5  1  0  0  0  0
  6  4  1  0  0  0  0
  8  1  1  0  0  0  0
  8 10  1  0  0  0  0
  9  8  1  0  0  0  0
 11 13  1  0  0  0  0
 11 14  1  0  0  0  0
 11  8  1  0  0  0  0
 12 11  1  0  0  0  0
 14  4  1  0  0  0  0
M  END
$$$$
Title Card Required
 OpenBabel06272217483D

 14 13  0  0  0  0  0  0  0  0999 V2000
   -2.0176   -1.8401    0.5131 C   0  0  0  0  0  0  0  0  0  0  0  0
   -1.9651   -2.7063   -0.1108 H   0  0  0  0  0  0  0  0  0  0  0  0
   -1.8366   -2.4089    1.4794 H   0  0  0  0  0  0  0  0  0  0  0  0
   -3.3562   -1.2548    0.0146 C   0  0  0  0  0  0  0  0  0  0  0  0
   -4.3394   -1.4676    0.5986 H   0  0  0  0  0  0  0  0  0  0  0  0
   -3.6742   -1.8915   -0.7851 H   0  0  0  0  0  0  0  0  0  0  0  0
    2.0926    0.6367    0.0303 Br  0  0  0  0  0 15  0  0  0  0  0  0
   -0.9241   -0.6932    0.2020 C   0  0  0  0  0  0  0  0  0  0  0  0
   -0.1040   -0.9836   -0.3339 H   0  0  0  0  0  0  0  0  0  0  0  0
   -0.4988   -0.4963    1.2073 H   0  0  0  0  0  0  0  0  0  0  0  0
   -1.8557    0.2525   -0.6965 C   0  0  0  0  0  0  0  0  0  0  0  0
   -1.7894    0.1792   -1.7630 H   0  0  0  0  0  0  0  0  0  0  0  0
   -1.3399    1.1875   -0.5145 H   0  0  0  0  0  0  0  0  0  0  0  0
   -3.2278    0.0524   -0.1603 O   0  0  0  0  0  0  0  0  0  0  0  0
  1  3  1  0  0  0  0
  2  1  1  0  0  0  0
  4  1  1  0  0  0  0
  4  5  1  0  0  0  0
  6  4  1  0  0  0  0
  8  1  1  0  0  0  0
  8 10  1  0  0  0  0
  9  8  1  0  0  0  0
 11 13  1  0  0  0  0
 11 14  1  0  0  0  0
 11  8  1  0  0  0  0
 12 11  1  0  0  0  0
 14  4  1  0  0  0  0
M  END
$$$$
Title Card Required
 OpenBabel06272217483D

 14 13  0  0  0  0  0  0  0  0999 V2000
   -2.0199   -1.8397    0.5140 C   0  0  0  0  0  0  0  0  0  0  0  0
   -1.9925   -2.6091   -0.1566 H   0  0  0  0  0  0  0  0  0  0  0  0
   -1.7910   -2.3928    1.4113 H   0  0  0  0  0  0  0  0  0  0  0  0
   -3.3590   -1.2517    0.0265 C   0  0  0  0  0  0  0  0  0  0  0  0
   -4.3304   -1.4753    0.6169 H   0  0  0  0  0  0  0  0  0  0  0  0
   -3.6419   -1.8737   -0.7392 H   0  0  0  0  0  0  0  0  0  0  0  0
    2.0920    0.6380    0.0312 Br  0  0  0  0  0 15  0  0  0  0  0  0
   -0.9371   -0.7164    0.1923 C   0  0  0  0  0  0  0  0  0  0  0  0
   -0.0873   -1.0264   -0.3560 H   0  0  0  0  0  0  0  0  0  0  0  0
   -0.4722   -0.4848    1.1781 H   0  0  0  0  0  0  0  0  0  0  0  0
   -1.8376    0.2647   -0.6785 C   0  0  0  0  0  0  0  0  0  0  0  0
   -1.8385    0.0796   -1.7645 H   0  0  0  0  0  0  0  0  0  0  0  0
   -1.3412    1.2224   -0.5944 H   0  0  0  0  0  0  0  0  0  0  0  0
   -3.2283    0.0494   -0.1695 O   0  0  0  0  0  0  0  0  0  0  0  0
  1  3  1  0  0  0  0
  2  1  1  0  0  0  0
  4  1  1  0  0  0  0
  4  5  1  0  0  0  0
  6  4  1  0  0  0  0
  8  1  1  0  0  0  0
  8 10  1  0  0  0  0
  9  8  1  0  0  0  0
 11 13  1  0  0  0  0
 11 14  1  0  0  0  0
 11  8  1  0  0  0  0
 12 11  1  0  0  0  0
 14  4  1  0  0  0  0
M  END
$$$$
Title Card Required
 OpenBabel06272217483D

 14 13  0  0  0  0  0  0  0  0999 V2000
   -2.0213   -1.8379    0.5147 C   0  0  0  0  0  0  0  0  0  0  0  0
   -2.0074   -2.5396   -0.2261 H   0  0  0  0  0  0  0  0  0  0  0  0
   -1.7528   -2.3721    1.3588 H   0  0  0  0  0  0  0  0  0  0  0  0
   -3.3633   -1.2502    0.0426 C   0  0  0  0  0  0  0  0  0  0  0  0
   -4.3068   -1.4751    0.6396 H   0  0  0  0  0  0  0  0  0  0  0  0
   -3.6141   -1.8673   -0.7325 H   0  0  0  0  0  0  0  0  0  0  0  0
    2.0914    0.6394    0.0322 Br  0  0  0  0  0 15  0  0  0  0  0  0
   -0.9527   -0.7403    0.1831 C   0  0  0  0  0  0  0  0  0  0  0  0
   -0.0597   -1.0762   -0.3885 H   0  0  0  0  0  0  0  0  0  0  0  0
   -0.4521   -0.4593    1.1413 H   0  0  0  0  0  0  0  0  0  0  0  0
   -1.8194    0.2758   -0.6590 C   0  0  0  0  0  0  0  0  0  0  0  0
   -1.8857   -0.0265   -1.7653 H   0  0  0  0  0  0  0  0  0  0  0  0
   -1.3518    1.2690   -0.6676 H   0  0  0  0  0  0  0  0  0  0  0  0
   -3.2272    0.0491   -0.1796 O   0  0  0  0  0  0  0  0  0  0  0  0
  1  3  1  0  0  0  0
  2  1  1  0  0  0  0
  4  1  1  0  0  0  0
  4  5  1  0  0  0  0
  6  4  1  0  0  0  0
  8  1  1  0  0  0  0
  8 10  1  0  0  0  0
  9  8  1  0  0  0  0
 11 14  1  0  0  0  0
 11  8  1  0  0  0  0
 12 11  1  0  0  0  0
 13 11  1  0  0  0  0
 14  4  1  0  0  0  0
M  END
$$$$
Title Card Required
 OpenBabel06272217483D

 14 13  0  0  0  0  0  0  0  0999 V2000
   -2.0221   -1.8341    0.5138 C   0  0  0  0  0  0  0  0  0  0  0  0
   -2.0093   -2.4991   -0.3167 H   0  0  0  0  0  0  0  0  0  0  0  0
   -1.7182   -2.3590    1.3357 H   0  0  0  0  0  0  0  0  0  0  0  0
   -3.3686   -1.2498    0.0624 C   0  0  0  0  0  0  0  0  0  0  0  0
   -4.2734   -1.4676    0.6673 H   0  0  0  0  0  0  0  0  0  0  0  0
   -3.5931   -1.8733   -0.7641 H   0  0  0  0  0  0  0  0  0  0  0  0
    2.0909    0.6408    0.0332 Br  0  0  0  0  0 15  0  0  0  0  0  0
   -0.9689   -0.7646    0.1739 C   0  0  0  0  0  0  0  0  0  0  0  0
   -0.0380   -1.1257   -0.4210 H   0  0  0  0  0  0  0  0  0  0  0  0
   -0.4388   -0.4237    1.0973 H   0  0  0  0  0  0  0  0  0  0  0  0
   -1.8018    0.2848   -0.6400 C   0  0  0  0  0  0  0  0  0  0  0  0
   -1.9272   -0.1311   -1.7535 H   0  0  0  0  0  0  0  0  0  0  0  0
   -1.3721    1.3193   -0.7335 H   0  0  0  0  0  0  0  0  0  0  0  0
   -3.2248    0.0515   -0.1902 O   0  0  0  0  0  0  0  0  0  0  0  0
  1  3  1  0  0  0  0
  2  1  1  0  0  0  0
  4  1  1  0  0  0  0
  4  5  1  0  0  0  0
  6  4  1  0  0  0  0
  8  1  1  0  0  0  0
  8 10  1  0  0  0  0
  9  8  1  0  0  0  0
 11 14  1  0  0  0  0
 11  8  1  0  0  0  0
 12 11  1  0  0  0  0
 13 11  1  0  0  0  0
 14  4  1  0  0  0  0
M  END
$$$$
Title Card Required
 OpenBabel06272217483D

 14 13  0  0  0  0  0  0  0  0999 V2000
   -2.0225   -1.8291    0.5097 C   0  0  0  0  0  0  0  0  0  0  0  0
   -1.9983   -2.4763   -0.4134 H   0  0  0  0  0  0  0  0  0  0  0  0
   -1.6851   -2.3595    1.3448 H   0  0  0  0  0  0  0  0  0  0  0  0
   -3.3747   -1.2506    0.0848 C   0  0  0  0  0  0  0  0  0  0  0  0
   -4.2364   -1.4541    0.7025 H   0  0  0  0  0  0  0  0  0  0  0  0
   -3.5781   -1.8827   -0.8195 H   0  0  0  0  0  0  0  0  0  0  0  0
    2.0903    0.6422    0.0341 Br  0  0  0  0  0 15  0  0  0  0  0  0
   -0.9845   -0.7888    0.1642 C   0  0  0  0  0  0  0  0  0  0  0  0
   -0.0336   -1.1705   -0.4469 H   0  0  0  0  0  0  0  0  0  0  0  0
   -0.4322   -0.3816    1.0464 H   0  0  0  0  0  0  0  0  0  0  0  0
   -1.7848    0.2915   -0.6224 C   0  0  0  0  0  0  0  0  0  0  0  0
   -1.9594   -0.2277   -1.7223 H   0  0  0  0  0  0  0  0  0  0  0  0
   -1.4029    1.3637   -0.7922 H   0  0  0  0  0  0  0  0  0  0  0  0
   -3.2211    0.0564   -0.2012 O   0  0  0  0  0  0  0  0  0  0  0  0
  1  3  1  0  0  0  0
  2  1  1  0  0  0  0
  4  1  1  0  0  0  0
  4  5  1  0  0  0  0
  6  4  1  0  0  0  0
  8  1  1  0  0  0  0
  8 10  1  0  0  0  0
  9  8  1  0  0  0  0
 11 14  1  0  0  0  0
 11  8  1  0  0  0  0
 12 11  1  0  0  0  0
 13 11  1  0  0  0  0
 14  4  1  0  0  0  0
M  END
$$$$
Title Card Required
 OpenBabel06272217483D

 14 13  0  0  0  0  0  0  0  0999 V2000
   -2.0220   -1.8242    0.5011 C   0  0  0  0  0  0  0  0  0  0  0  0
   -1.9738   -2.4604   -0.4991 H   0  0  0  0  0  0  0  0  0  0  0  0
   -1.6554   -2.3717    1.3777 H   0  0  0  0  0  0  0  0  0  0  0  0
   -3.3813   -1.2529    0.1086 C   0  0  0  0  0  0  0  0  0  0  0  0
   -4.2032   -1.4358    0.7511 H   0  0  0  0  0  0  0  0  0  0  0  0
   -3.5687   -1.8839   -0.8806 H   0  0  0  0  0  0  0  0  0  0  0  0
    2.0897    0.6437    0.0351 Br  0  0  0  0  0 15  0  0  0  0  0  0
   -0.9986   -0.8132    0.1535 C   0  0  0  0  0  0  0  0  0  0  0  0
   -0.0541   -1.2088   -0.4625 H   0  0  0  0  0  0  0  0  0  0  0  0
   -0.4324   -0.3353    0.9881 H   0  0  0  0  0  0  0  0  0  0  0  0
   -1.7685    0.2955   -0.6070 C   0  0  0  0  0  0  0  0  0  0  0  0
   -1.9787   -0.3120   -1.6674 H   0  0  0  0  0  0  0  0  0  0  0  0
   -1.4465    1.3930   -0.8431 H   0  0  0  0  0  0  0  0  0  0  0  0
   -3.2160    0.0640   -0.2127 O   0  0  0  0  0  0  0  0  0  0  0  0
  1  3  1  0  0  0  0
  2  1  1  0  0  0  0
  4  1  1  0  0  0  0
  4  5  1  0  0  0  0
  6  4  1  0  0  0  0
  8  1  1  0  0  0  0
  8 10  1  0  0  0  0
  9  8  1  0  0  0  0
 11 14  1  0  0  0  0
 11  8  1  0  0  0  0
 12 11  1  0  0  0  0
 13 11  1  0  0  0  0
 14  4  1  0  0  0  0
M  END
$$$$
Title Card Required
 OpenBabel06272217483D

 14 13  0  0  0  0  0  0  0  0999 V2000
   -2.0202   -1.8220    0.4872 C   0  0  0  0  0  0  0  0  0  0  0  0
   -1.9347   -2.4456   -0.5549 H   0  0  0  0  0  0  0  0  0  0  0  0
   -1.6377   -2.3878    1.4176 H   0  0  0  0  0  0  0  0  0  0  0  0
   -3.3881   -1.2569    0.1321 C   0  0  0  0  0  0  0  0  0  0  0  0
   -4.1826   -1.4134    0.8207 H   0  0  0  0  0  0  0  0  0  0  0  0
   -3.5680   -1.8660   -0.9279 H   0  0  0  0  0  0  0  0  0  0  0  0
    2.0891    0.6453    0.0362 Br  0  0  0  0  0 15  0  0  0  0  0  0
   -1.0101   -0.8370    0.1413 C   0  0  0  0  0  0  0  0  0  0  0  0
   -0.1070   -1.2385   -0.4649 H   0  0  0  0  0  0  0  0  0  0  0  0
   -0.4398   -0.2884    0.9234 H   0  0  0  0  0  0  0  0  0  0  0  0
   -1.7534    0.2958   -0.5946 C   0  0  0  0  0  0  0  0  0  0  0  0
   -1.9790   -0.3760   -1.5868 H   0  0  0  0  0  0  0  0  0  0  0  0
   -1.5042    1.3957   -0.8831 H   0  0  0  0  0  0  0  0  0  0  0  0
   -3.2092    0.0749   -0.2243 O   0  0  0  0  0  0  0  0  0  0  0  0
  1  3  1  0  0  0  0
  2  1  1  0  0  0  0
  4  1  1  0  0  0  0
  4  5  1  0  0  0  0
  6  4  1  0  0  0  0
  8  1  1  0  0  0  0
  8 10  1  0  0  0  0
  9  8  1  0  0  0  0
 11 14  1  0  0  0  0
 11  8  1  0  0  0  0
 12 11  1  0  0  0  0
 13 11  1  0  0  0  0
 14  4  1  0  0  0  0
M  END
$$$$
Title Card Required
 OpenBabel06272217483D

 14 13  0  0  0  0  0  0  0  0999 V2000
   -2.0165   -1.8252    0.4684 C   0  0  0  0  0  0  0  0  0  0  0  0
   -1.8849   -2.4318   -0.5594 H   0  0  0  0  0  0  0  0  0  0  0  0
   -1.6442   -2.3965    1.4400 H   0  0  0  0  0  0  0  0  0  0  0  0
   -3.3944   -1.2617    0.1528 C   0  0  0  0  0  0  0  0  0  0  0  0
   -4.1782   -1.3878    0.9098 H   0  0  0  0  0  0  0  0  0  0  0  0
   -3.5813   -1.8227   -0.9372 H   0  0  0  0  0  0  0  0  0  0  0  0
    2.0883    0.6472    0.0375 Br  0  0  0  0  0 15  0  0  0  0  0  0
   -1.0168   -0.8569    0.1284 C   0  0  0  0  0  0  0  0  0  0  0  0
   -0.1892   -1.2580   -0.4562 H   0  0  0  0  0  0  0  0  0  0  0  0
   -0.4532   -0.2498    0.8616 H   0  0  0  0  0  0  0  0  0  0  0  0
   -1.7420    0.2904   -0.5875 C   0  0  0  0  0  0  0  0  0  0  0  0
   -1.9528   -0.4063   -1.4911 H   0  0  0  0  0  0  0  0  0  0  0  0
   -1.5703    1.3626   -0.9050 H   0  0  0  0  0  0  0  0  0  0  0  0
   -3.2009    0.0888   -0.2349 O   0  0  0  0  0  0  0  0  0  0  0  0
  1  3  1  0  0  0  0
  2  1  1  0  0  0  0
  4  1  1  0  0  0  0
  4  5  1  0  0  0  0
  6  4  1  0  0  0  0
  8  1  1  0  0  0  0
  8 10  1  0  0  0  0
  9  8  1  0  0  0  0
 11 14  1  0  0  0  0
 11  8  1  0  0  0  0
 12 11  1  0  0  0  0
 13 11  1  0  0  0  0
 14  4  1  0  0  0  0
M  END
$$$$
Title Card Required
 OpenBabel06272217483D

 14 13  0  0  0  0  0  0  0  0999 V2000
   -2.0114   -1.8356    0.4474 C   0  0  0  0  0  0  0  0  0  0  0  0
   -1.8350   -2.4258   -0.5078 H   0  0  0  0  0  0  0  0  0  0  0  0
   -1.6805   -2.3905    1.4268 H   0  0  0  0  0  0  0  0  0  0  0  0
   -3.4004   -1.2659    0.1686 C   0  0  0  0  0  0  0  0  0  0  0  0
   -4.1776   -1.3594    0.9974 H   0  0  0  0  0  0  0  0  0  0  0  0
   -3.6121   -1.7592   -0.8941 H   0  0  0  0  0  0  0  0  0  0  0  0
    2.0876    0.6491    0.0387 Br  0  0  0  0  0 15  0  0  0  0  0  0
   -1.0181   -0.8680    0.1176 C   0  0  0  0  0  0  0  0  0  0  0  0
   -0.2699   -1.2745   -0.4542 H   0  0  0  0  0  0  0  0  0  0  0  0
   -0.4674   -0.2297    0.8184 H   0  0  0  0  0  0  0  0  0  0  0  0
   -1.7369    0.2779   -0.5864 C   0  0  0  0  0  0  0  0  0  0  0  0
   -1.9014   -0.3988   -1.4120 H   0  0  0  0  0  0  0  0  0  0  0  0
   -1.6297    1.3043   -0.9064 H   0  0  0  0  0  0  0  0  0  0  0  0
   -3.1917    0.1044   -0.2427 O   0  0  0  0  0  0  0  0  0  0  0  0
  1  3  1  0  0  0  0
  2  1  1  0  0  0  0
  4  1  1  0  0  0  0
  4  5  1  0  0  0  0
  6  4  1  0  0  0  0
  8  1  1  0  0  0  0
  8 10  1  0  0  0  0
  9  8  1  0  0  0  0
 11 14  1  0  0  0  0
 11  8  1  0  0  0  0
 12 11  1  0  0  0  0
 13 11  1  0  0  0  0
 14  4  1  0  0  0  0
M  END
$$$$
Title Card Required
 OpenBabel06272217483D

 14 13  0  0  0  0  0  0  0  0999 V2000
   -2.0066   -1.8516    0.4272 C   0  0  0  0  0  0  0  0  0  0  0  0
   -1.7945   -2.4412   -0.4249 H   0  0  0  0  0  0  0  0  0  0  0  0
   -1.7402   -2.3725    1.3816 H   0  0  0  0  0  0  0  0  0  0  0  0
   -3.4064   -1.2681    0.1806 C   0  0  0  0  0  0  0  0  0  0  0  0
   -4.1647   -1.3296    1.0612 H   0  0  0  0  0  0  0  0  0  0  0  0
   -3.6612   -1.6915   -0.8079 H   0  0  0  0  0  0  0  0  0  0  0  0
    2.0868    0.6511    0.0399 Br  0  0  0  0  0 15  0  0  0  0  0  0
   -1.0160   -0.8682    0.1117 C   0  0  0  0  0  0  0  0  0  0  0  0
   -0.3095   -1.3015   -0.4839 H   0  0  0  0  0  0  0  0  0  0  0  0
   -0.4751   -0.2318    0.8043 H   0  0  0  0  0  0  0  0  0  0  0  0
   -1.7388    0.2587   -0.5893 C   0  0  0  0  0  0  0  0  0  0  0  0
   -1.8369   -0.3722   -1.3898 H   0  0  0  0  0  0  0  0  0  0  0  0
   -1.6679    1.2527   -0.8945 H   0  0  0  0  0  0  0  0  0  0  0  0
   -3.1825    0.1202   -0.2472 O   0  0  0  0  0  0  0  0  0  0  0  0
  1  3  1  0  0  0  0
  2  1  1  0  0  0  0
  4  1  1  0  0  0  0
  4  5  1  0  0  0  0
  6  4  1  0  0  0  0
  8  1  1  0  0  0  0
  8 10  1  0  0  0  0
  9  8  1  0  0  0  0
 11 14  1  0  0  0  0
 11  8  1  0  0  0  0
 12 11  1  0  0  0  0
 13 11  1  0  0  0  0
 14  4  1  0  0  0  0
M  END
$$$$
Title Card Required
 OpenBabel06272217483D

 14 13  0  0  0  0  0  0  0  0999 V2000
   -2.0039   -1.8686    0.4106 C   0  0  0  0  0  0  0  0  0  0  0  0
   -1.7647   -2.4933   -0.3550 H   0  0  0  0  0  0  0  0  0  0  0  0
   -1.8078   -2.3544    1.3299 H   0  0  0  0  0  0  0  0  0  0  0  0
   -3.4114   -1.2671    0.1910 C   0  0  0  0  0  0  0  0  0  0  0  0
   -4.1357   -1.3010    1.0923 H   0  0  0  0  0  0  0  0  0  0  0  0
   -3.7286   -1.6410   -0.7160 H   0  0  0  0  0  0  0  0  0  0  0  0
    2.0861    0.6529    0.0411 Br  0  0  0  0  0 15  0  0  0  0  0  0
   -1.0115   -0.8597    0.1107 C   0  0  0  0  0  0  0  0  0  0  0  0
   -0.3050   -1.3352   -0.5414 H   0  0  0  0  0  0  0  0  0  0  0  0
   -0.4714   -0.2525    0.8199 H   0  0  0  0  0  0  0  0  0  0  0  0
   -1.7467    0.2356   -0.5931 C   0  0  0  0  0  0  0  0  0  0  0  0
   -1.7740   -0.3503   -1.4445 H   0  0  0  0  0  0  0  0  0  0  0  0
   -1.6780    1.2356   -0.8775 H   0  0  0  0  0  0  0  0  0  0  0  0
   -3.1737    0.1346   -0.2484 O   0  0  0  0  0  0  0  0  0  0  0  0
  1  3  1  0  0  0  0
  2  1  1  0  0  0  0
  4  1  1  0  0  0  0
  4  5  1  0  0  0  0
  6  4  1  0  0  0  0
  8  1  1  0  0  0  0
  8 10  1  0  0  0  0
  9  8  1  0  0  0  0
 11 14  1  0  0  0  0
 11  8  1  0  0  0  0
 12 11  1  0  0  0  0
 13 11  1  0  0  0  0
 14  4  1  0  0  0  0
M  END
$$$$
Title Card Required
 OpenBabel06272217483D

 14 13  0  0  0  0  0  0  0  0999 V2000
   -2.0039   -1.8827    0.3978 C   0  0  0  0  0  0  0  0  0  0  0  0
   -1.7420   -2.5814   -0.3214 H   0  0  0  0  0  0  0  0  0  0  0  0
   -1.8695   -2.3479    1.3011 H   0  0  0  0  0  0  0  0  0  0  0  0
   -3.4143   -1.2624    0.2023 C   0  0  0  0  0  0  0  0  0  0  0  0
   -4.0975   -1.2753    1.0995 H   0  0  0  0  0  0  0  0  0  0  0  0
   -3.8142   -1.6207   -0.6566 H   0  0  0  0  0  0  0  0  0  0  0  0
    2.0855    0.6545    0.0421 Br  0  0  0  0  0 15  0  0  0  0  0  0
   -1.0046   -0.8473    0.1118 C   0  0  0  0  0  0  0  0  0  0  0  0
   -0.2844   -1.3589   -0.5991 H   0  0  0  0  0  0  0  0  0  0  0  0
   -0.4577   -0.2840    0.8558 H   0  0  0  0  0  0  0  0  0  0  0  0
   -1.7585    0.2114   -0.5980 C   0  0  0  0  0  0  0  0  0  0  0  0
   -1.7196   -0.3329   -1.5470 H   0  0  0  0  0  0  0  0  0  0  0  0
   -1.6644    1.2483   -0.8563 H   0  0  0  0  0  0  0  0  0  0  0  0
   -3.1656    0.1465   -0.2474 O   0  0  0  0  0  0  0  0  0  0  0  0
  1  3  1  0  0  0  0
  2  1  1  0  0  0  0
  4  1  1  0  0  0  0
  4  5  1  0  0  0  0
  6  4  1  0  0  0  0
  8  1  1  0  0  0  0
  8 10  1  0  0  0  0
  9  8  1  0  0  0  0
 11 14  1  0  0  0  0
 11  8  1  0  0  0  0
 12 11  1  0  0  0  0
 13 11  1  0  0  0  0
 14  4  1  0  0  0  0
M  END
$$$$
